 INFO
nunit      1    1    1
unit   cell
celltype   primcell
shape   parapipedal
 END_INFO
 DIM-GROUP
           3           7
 PRIMVEC
    0.0000000000    2.4676301070    2.4676301070
    2.4676301070    0.0000000000    2.4676301070
    2.4676301070    2.4676301070    0.0000000000
 CONVVEC
    0.0000000000    2.4676301070    2.4676301070
    2.4676301070    0.0000000000    2.4676301070
    2.4676301070    2.4676301070    0.0000000000
 PRIMCOORD
           2           1
 25      3.7014461400     3.7014461400     3.7014461400     0.0000000000    -0.0000000000     0.0000000000
 16      0.0000000000     0.0000000000     0.0000000000     0.0000000000     0.0000000000     0.0000000000
 CONVCOORD
           2           1
 25      3.7014461400     3.7014461400     3.7014461400
 16      0.0000000000     0.0000000000     0.0000000000
 RECIP-PRIMVEC
   -0.2026235612    0.2026235612    0.2026235612

    0.2026235612   -0.2026235612    0.2026235612

    0.2026235612    0.2026235612   -0.2026235612

 RECIP-CONVVEC
   -0.2026235612    0.2026235612    0.2026235612

    0.2026235612   -0.2026235612    0.2026235612

    0.2026235612    0.2026235612   -0.2026235612

 WIGNER-SEITZ-PRIMCELL
           4
 -0.1233815E+01 -0.1233815E+01 -0.1233815E+01  -0.0000000E+00 -0.7071068E+00 -0.7071068E+00
  0.0000000E+00  0.0000000E+00 -0.2467630E+01  -0.0000000E+00 -0.7071068E+00 -0.7071068E+00
  0.1233815E+01 -0.1233815E+01 -0.1233815E+01  -0.0000000E+00 -0.7071068E+00 -0.7071068E+00
 -0.0000000E+00 -0.2467630E+01 -0.0000000E+00  -0.0000000E+00 -0.7071068E+00 -0.7071068E+00
           4
  0.2467630E+01  0.0000000E+00  0.0000000E+00   0.7071068E+00  0.0000000E+00 -0.7071068E+00
  0.1233815E+01 -0.1233815E+01 -0.1233815E+01   0.7071068E+00  0.0000000E+00 -0.7071068E+00
  0.0000000E+00  0.0000000E+00 -0.2467630E+01   0.7071068E+00  0.0000000E+00 -0.7071068E+00
  0.1233815E+01  0.1233815E+01 -0.1233815E+01   0.7071068E+00  0.0000000E+00 -0.7071068E+00
           4
 -0.1233815E+01  0.1233815E+01 -0.1233815E+01  -0.7071068E+00 -0.0000000E+00 -0.7071068E+00
  0.0000000E+00  0.0000000E+00 -0.2467630E+01  -0.7071068E+00 -0.0000000E+00 -0.7071068E+00
 -0.1233815E+01 -0.1233815E+01 -0.1233815E+01  -0.7071068E+00 -0.0000000E+00 -0.7071068E+00
 -0.2467630E+01 -0.0000000E+00 -0.0000000E+00  -0.7071068E+00 -0.0000000E+00 -0.7071068E+00
           4
  0.1233815E+01  0.1233815E+01 -0.1233815E+01  -0.0000000E+00  0.7071068E+00 -0.7071068E+00
  0.0000000E+00  0.0000000E+00 -0.2467630E+01  -0.0000000E+00  0.7071068E+00 -0.7071068E+00
 -0.1233815E+01  0.1233815E+01 -0.1233815E+01  -0.0000000E+00  0.7071068E+00 -0.7071068E+00
  0.0000000E+00  0.2467630E+01  0.0000000E+00  -0.0000000E+00  0.7071068E+00 -0.7071068E+00
           4
 -0.0000000E+00 -0.2467630E+01 -0.0000000E+00   0.7071068E+00 -0.7071068E+00 -0.0000000E+00
  0.1233815E+01 -0.1233815E+01 -0.1233815E+01   0.7071068E+00 -0.7071068E+00 -0.0000000E+00
  0.2467630E+01  0.0000000E+00  0.0000000E+00   0.7071068E+00 -0.7071068E+00 -0.0000000E+00
  0.1233815E+01 -0.1233815E+01  0.1233815E+01   0.7071068E+00 -0.7071068E+00 -0.0000000E+00
           4
 -0.1233815E+01 -0.1233815E+01  0.1233815E+01  -0.7071068E+00 -0.7071068E+00  0.0000000E+00
 -0.2467630E+01 -0.0000000E+00 -0.0000000E+00  -0.7071068E+00 -0.7071068E+00  0.0000000E+00
 -0.1233815E+01 -0.1233815E+01 -0.1233815E+01  -0.7071068E+00 -0.7071068E+00  0.0000000E+00
 -0.0000000E+00 -0.2467630E+01 -0.0000000E+00  -0.7071068E+00 -0.7071068E+00  0.0000000E+00
           4
 -0.0000000E+00 -0.0000000E+00  0.2467630E+01   0.0000000E+00 -0.7071068E+00  0.7071068E+00
 -0.1233815E+01 -0.1233815E+01  0.1233815E+01   0.0000000E+00 -0.7071068E+00  0.7071068E+00
 -0.0000000E+00 -0.2467630E+01 -0.0000000E+00   0.0000000E+00 -0.7071068E+00  0.7071068E+00
  0.1233815E+01 -0.1233815E+01  0.1233815E+01   0.0000000E+00 -0.7071068E+00  0.7071068E+00
           4
  0.2467630E+01  0.0000000E+00  0.0000000E+00   0.7071068E+00  0.7071068E+00 -0.0000000E+00
  0.1233815E+01  0.1233815E+01 -0.1233815E+01   0.7071068E+00  0.7071068E+00 -0.0000000E+00
  0.0000000E+00  0.2467630E+01  0.0000000E+00   0.7071068E+00  0.7071068E+00 -0.0000000E+00
  0.1233815E+01  0.1233815E+01  0.1233815E+01   0.7071068E+00  0.7071068E+00 -0.0000000E+00
           4
  0.0000000E+00  0.0000000E+00  0.2467630E+01   0.7071068E+00  0.0000000E+00  0.7071068E+00
  0.1233815E+01 -0.1233815E+01  0.1233815E+01   0.7071068E+00  0.0000000E+00  0.7071068E+00
  0.2467630E+01  0.0000000E+00  0.0000000E+00   0.7071068E+00  0.0000000E+00  0.7071068E+00
  0.1233815E+01  0.1233815E+01  0.1233815E+01   0.7071068E+00  0.0000000E+00  0.7071068E+00
           4
 -0.1233815E+01  0.1233815E+01  0.1233815E+01  -0.7071068E+00  0.7071068E+00  0.0000000E+00
 -0.0000000E+00  0.2467630E+01 -0.0000000E+00  -0.7071068E+00  0.7071068E+00  0.0000000E+00
 -0.1233815E+01  0.1233815E+01 -0.1233815E+01  -0.7071068E+00  0.7071068E+00  0.0000000E+00
 -0.2467630E+01 -0.0000000E+00 -0.0000000E+00  -0.7071068E+00  0.7071068E+00  0.0000000E+00
           4
 -0.1233815E+01  0.1233815E+01  0.1233815E+01  -0.7071068E+00 -0.0000000E+00  0.7071068E+00
 -0.2467630E+01 -0.0000000E+00 -0.0000000E+00  -0.7071068E+00 -0.0000000E+00  0.7071068E+00
 -0.1233815E+01 -0.1233815E+01  0.1233815E+01  -0.7071068E+00 -0.0000000E+00  0.7071068E+00
 -0.0000000E+00 -0.0000000E+00  0.2467630E+01  -0.7071068E+00 -0.0000000E+00  0.7071068E+00
           4
 -0.0000000E+00 -0.0000000E+00  0.2467630E+01   0.0000000E+00  0.7071068E+00  0.7071068E+00
  0.1233815E+01  0.1233815E+01  0.1233815E+01   0.0000000E+00  0.7071068E+00  0.7071068E+00
 -0.0000000E+00  0.2467630E+01 -0.0000000E+00   0.0000000E+00  0.7071068E+00  0.7071068E+00
 -0.1233815E+01  0.1233815E+01  0.1233815E+01   0.0000000E+00  0.7071068E+00  0.7071068E+00
 WIGNER-SEITZ-PRIMCELL_END
 WIGNER-SEITZ-CONVCELL
           4
 -0.1233815E+01 -0.1233815E+01 -0.1233815E+01  -0.0000000E+00 -0.7071068E+00 -0.7071068E+00
  0.0000000E+00  0.0000000E+00 -0.2467630E+01  -0.0000000E+00 -0.7071068E+00 -0.7071068E+00
  0.1233815E+01 -0.1233815E+01 -0.1233815E+01  -0.0000000E+00 -0.7071068E+00 -0.7071068E+00
 -0.0000000E+00 -0.2467630E+01 -0.0000000E+00  -0.0000000E+00 -0.7071068E+00 -0.7071068E+00
           4
  0.2467630E+01  0.0000000E+00  0.0000000E+00   0.7071068E+00  0.0000000E+00 -0.7071068E+00
  0.1233815E+01 -0.1233815E+01 -0.1233815E+01   0.7071068E+00  0.0000000E+00 -0.7071068E+00
  0.0000000E+00  0.0000000E+00 -0.2467630E+01   0.7071068E+00  0.0000000E+00 -0.7071068E+00
  0.1233815E+01  0.1233815E+01 -0.1233815E+01   0.7071068E+00  0.0000000E+00 -0.7071068E+00
           4
 -0.1233815E+01  0.1233815E+01 -0.1233815E+01  -0.7071068E+00 -0.0000000E+00 -0.7071068E+00
  0.0000000E+00  0.0000000E+00 -0.2467630E+01  -0.7071068E+00 -0.0000000E+00 -0.7071068E+00
 -0.1233815E+01 -0.1233815E+01 -0.1233815E+01  -0.7071068E+00 -0.0000000E+00 -0.7071068E+00
 -0.2467630E+01 -0.0000000E+00 -0.0000000E+00  -0.7071068E+00 -0.0000000E+00 -0.7071068E+00
           4
  0.1233815E+01  0.1233815E+01 -0.1233815E+01  -0.0000000E+00  0.7071068E+00 -0.7071068E+00
  0.0000000E+00  0.0000000E+00 -0.2467630E+01  -0.0000000E+00  0.7071068E+00 -0.7071068E+00
 -0.1233815E+01  0.1233815E+01 -0.1233815E+01  -0.0000000E+00  0.7071068E+00 -0.7071068E+00
  0.0000000E+00  0.2467630E+01  0.0000000E+00  -0.0000000E+00  0.7071068E+00 -0.7071068E+00
           4
 -0.0000000E+00 -0.2467630E+01 -0.0000000E+00   0.7071068E+00 -0.7071068E+00 -0.0000000E+00
  0.1233815E+01 -0.1233815E+01 -0.1233815E+01   0.7071068E+00 -0.7071068E+00 -0.0000000E+00
  0.2467630E+01  0.0000000E+00  0.0000000E+00   0.7071068E+00 -0.7071068E+00 -0.0000000E+00
  0.1233815E+01 -0.1233815E+01  0.1233815E+01   0.7071068E+00 -0.7071068E+00 -0.0000000E+00
           4
 -0.1233815E+01 -0.1233815E+01  0.1233815E+01  -0.7071068E+00 -0.7071068E+00  0.0000000E+00
 -0.2467630E+01 -0.0000000E+00 -0.0000000E+00  -0.7071068E+00 -0.7071068E+00  0.0000000E+00
 -0.1233815E+01 -0.1233815E+01 -0.1233815E+01  -0.7071068E+00 -0.7071068E+00  0.0000000E+00
 -0.0000000E+00 -0.2467630E+01 -0.0000000E+00  -0.7071068E+00 -0.7071068E+00  0.0000000E+00
           4
 -0.0000000E+00 -0.0000000E+00  0.2467630E+01   0.0000000E+00 -0.7071068E+00  0.7071068E+00
 -0.1233815E+01 -0.1233815E+01  0.1233815E+01   0.0000000E+00 -0.7071068E+00  0.7071068E+00
 -0.0000000E+00 -0.2467630E+01 -0.0000000E+00   0.0000000E+00 -0.7071068E+00  0.7071068E+00
  0.1233815E+01 -0.1233815E+01  0.1233815E+01   0.0000000E+00 -0.7071068E+00  0.7071068E+00
           4
  0.2467630E+01  0.0000000E+00  0.0000000E+00   0.7071068E+00  0.7071068E+00 -0.0000000E+00
  0.1233815E+01  0.1233815E+01 -0.1233815E+01   0.7071068E+00  0.7071068E+00 -0.0000000E+00
  0.0000000E+00  0.2467630E+01  0.0000000E+00   0.7071068E+00  0.7071068E+00 -0.0000000E+00
  0.1233815E+01  0.1233815E+01  0.1233815E+01   0.7071068E+00  0.7071068E+00 -0.0000000E+00
           4
  0.0000000E+00  0.0000000E+00  0.2467630E+01   0.7071068E+00  0.0000000E+00  0.7071068E+00
  0.1233815E+01 -0.1233815E+01  0.1233815E+01   0.7071068E+00  0.0000000E+00  0.7071068E+00
  0.2467630E+01  0.0000000E+00  0.0000000E+00   0.7071068E+00  0.0000000E+00  0.7071068E+00
  0.1233815E+01  0.1233815E+01  0.1233815E+01   0.7071068E+00  0.0000000E+00  0.7071068E+00
           4
 -0.1233815E+01  0.1233815E+01  0.1233815E+01  -0.7071068E+00  0.7071068E+00  0.0000000E+00
 -0.0000000E+00  0.2467630E+01 -0.0000000E+00  -0.7071068E+00  0.7071068E+00  0.0000000E+00
 -0.1233815E+01  0.1233815E+01 -0.1233815E+01  -0.7071068E+00  0.7071068E+00  0.0000000E+00
 -0.2467630E+01 -0.0000000E+00 -0.0000000E+00  -0.7071068E+00  0.7071068E+00  0.0000000E+00
           4
 -0.1233815E+01  0.1233815E+01  0.1233815E+01  -0.7071068E+00 -0.0000000E+00  0.7071068E+00
 -0.2467630E+01 -0.0000000E+00 -0.0000000E+00  -0.7071068E+00 -0.0000000E+00  0.7071068E+00
 -0.1233815E+01 -0.1233815E+01  0.1233815E+01  -0.7071068E+00 -0.0000000E+00  0.7071068E+00
 -0.0000000E+00 -0.0000000E+00  0.2467630E+01  -0.7071068E+00 -0.0000000E+00  0.7071068E+00
           4
 -0.0000000E+00 -0.0000000E+00  0.2467630E+01   0.0000000E+00  0.7071068E+00  0.7071068E+00
  0.1233815E+01  0.1233815E+01  0.1233815E+01   0.0000000E+00  0.7071068E+00  0.7071068E+00
 -0.0000000E+00  0.2467630E+01 -0.0000000E+00   0.0000000E+00  0.7071068E+00  0.7071068E+00
 -0.1233815E+01  0.1233815E+01  0.1233815E+01   0.0000000E+00  0.7071068E+00  0.7071068E+00
 WIGNER-SEITZ-CONVCELL_END
 BRILLOUIN-ZONE-PRIMCELL
           6
 -0.2026236E+00  0.0000000E+00 -0.1013118E+00  -0.5773503E+00 -0.5773503E+00 -0.5773503E+00
 -0.1013118E+00 -0.0000000E+00 -0.2026236E+00  -0.5773503E+00 -0.5773503E+00 -0.5773503E+00
  0.1303288E-16 -0.1013118E+00 -0.2026236E+00  -0.5773503E+00 -0.5773503E+00 -0.5773503E+00
 -0.1303288E-16 -0.2026236E+00 -0.1013118E+00  -0.5773503E+00 -0.5773503E+00 -0.5773503E+00
 -0.1013118E+00 -0.2026236E+00  0.0000000E+00  -0.5773503E+00 -0.5773503E+00 -0.5773503E+00
 -0.2026236E+00 -0.1013118E+00 -0.0000000E+00  -0.5773503E+00 -0.5773503E+00 -0.5773503E+00
           4
 -0.1013118E+00 -0.0000000E+00 -0.2026236E+00   0.0000000E+00 -0.1690092E-15 -0.1000000E+01
 -0.1303288E-16  0.1013118E+00 -0.2026236E+00   0.0000000E+00 -0.1690092E-15 -0.1000000E+01
  0.1013118E+00 -0.0000000E+00 -0.2026236E+00   0.0000000E+00 -0.1690092E-15 -0.1000000E+01
  0.1303288E-16 -0.1013118E+00 -0.2026236E+00   0.0000000E+00 -0.1690092E-15 -0.1000000E+01
           6
 -0.1303288E-16 -0.2026236E+00 -0.1013118E+00   0.5773503E+00 -0.5773503E+00 -0.5773503E+00
  0.1303288E-16 -0.1013118E+00 -0.2026236E+00   0.5773503E+00 -0.5773503E+00 -0.5773503E+00
  0.1013118E+00 -0.0000000E+00 -0.2026236E+00   0.5773503E+00 -0.5773503E+00 -0.5773503E+00
  0.2026236E+00  0.0000000E+00 -0.1013118E+00   0.5773503E+00 -0.5773503E+00 -0.5773503E+00
  0.2026236E+00 -0.1013118E+00 -0.0000000E+00   0.5773503E+00 -0.5773503E+00 -0.5773503E+00
  0.1013118E+00 -0.2026236E+00  0.0000000E+00   0.5773503E+00 -0.5773503E+00 -0.5773503E+00
           6
 -0.2026236E+00  0.1013118E+00 -0.0000000E+00  -0.5773503E+00  0.5773503E+00 -0.5773503E+00
 -0.1013118E+00  0.2026236E+00  0.0000000E+00  -0.5773503E+00  0.5773503E+00 -0.5773503E+00
  0.2606576E-16  0.2026236E+00 -0.1013118E+00  -0.5773503E+00  0.5773503E+00 -0.5773503E+00
 -0.1303288E-16  0.1013118E+00 -0.2026236E+00  -0.5773503E+00  0.5773503E+00 -0.5773503E+00
 -0.1013118E+00 -0.0000000E+00 -0.2026236E+00  -0.5773503E+00  0.5773503E+00 -0.5773503E+00
 -0.2026236E+00  0.0000000E+00 -0.1013118E+00  -0.5773503E+00  0.5773503E+00 -0.5773503E+00
           4
 -0.1013118E+00 -0.2026236E+00  0.0000000E+00  -0.0000000E+00 -0.1000000E+01 -0.1690092E-15
 -0.1303288E-16 -0.2026236E+00 -0.1013118E+00  -0.0000000E+00 -0.1000000E+01 -0.1690092E-15
  0.1013118E+00 -0.2026236E+00  0.0000000E+00  -0.0000000E+00 -0.1000000E+01 -0.1690092E-15
  0.2606576E-16 -0.2026236E+00  0.1013118E+00  -0.0000000E+00 -0.1000000E+01 -0.1690092E-15
           6
 -0.2026236E+00  0.0000000E+00  0.1013118E+00  -0.5773503E+00 -0.5773503E+00  0.5773503E+00
 -0.2026236E+00 -0.1013118E+00 -0.0000000E+00  -0.5773503E+00 -0.5773503E+00  0.5773503E+00
 -0.1013118E+00 -0.2026236E+00  0.0000000E+00  -0.5773503E+00 -0.5773503E+00  0.5773503E+00
  0.2606576E-16 -0.2026236E+00  0.1013118E+00  -0.5773503E+00 -0.5773503E+00  0.5773503E+00
 -0.2606576E-16 -0.1013118E+00  0.2026236E+00  -0.5773503E+00 -0.5773503E+00  0.5773503E+00
 -0.1013118E+00 -0.0000000E+00  0.2026236E+00  -0.5773503E+00 -0.5773503E+00  0.5773503E+00
           4
 -0.2026236E+00  0.0000000E+00  0.1013118E+00  -0.1000000E+01 -0.0000000E+00  0.0000000E+00
 -0.2026236E+00  0.1013118E+00 -0.0000000E+00  -0.1000000E+01 -0.0000000E+00  0.0000000E+00
 -0.2026236E+00  0.0000000E+00 -0.1013118E+00  -0.1000000E+01 -0.0000000E+00  0.0000000E+00
 -0.2026236E+00 -0.1013118E+00 -0.0000000E+00  -0.1000000E+01 -0.0000000E+00  0.0000000E+00
           6
  0.1013118E+00  0.2026236E+00  0.0000000E+00   0.5773503E+00  0.5773503E+00 -0.5773503E+00
  0.2026236E+00  0.1013118E+00 -0.0000000E+00   0.5773503E+00  0.5773503E+00 -0.5773503E+00
  0.2026236E+00  0.0000000E+00 -0.1013118E+00   0.5773503E+00  0.5773503E+00 -0.5773503E+00
  0.1013118E+00 -0.0000000E+00 -0.2026236E+00   0.5773503E+00  0.5773503E+00 -0.5773503E+00
 -0.1303288E-16  0.1013118E+00 -0.2026236E+00   0.5773503E+00  0.5773503E+00 -0.5773503E+00
  0.2606576E-16  0.2026236E+00 -0.1013118E+00   0.5773503E+00  0.5773503E+00 -0.5773503E+00
           6
  0.2606576E-16 -0.2026236E+00  0.1013118E+00   0.5773503E+00 -0.5773503E+00  0.5773503E+00
  0.1013118E+00 -0.2026236E+00  0.0000000E+00   0.5773503E+00 -0.5773503E+00  0.5773503E+00
  0.2026236E+00 -0.1013118E+00 -0.0000000E+00   0.5773503E+00 -0.5773503E+00  0.5773503E+00
  0.2026236E+00  0.0000000E+00  0.1013118E+00   0.5773503E+00 -0.5773503E+00  0.5773503E+00
  0.1013118E+00 -0.0000000E+00  0.2026236E+00   0.5773503E+00 -0.5773503E+00  0.5773503E+00
 -0.2606576E-16 -0.1013118E+00  0.2026236E+00   0.5773503E+00 -0.5773503E+00  0.5773503E+00
           4
  0.2026236E+00 -0.1013118E+00 -0.0000000E+00   0.1000000E+01  0.0000000E+00 -0.0000000E+00
  0.2026236E+00  0.0000000E+00 -0.1013118E+00   0.1000000E+01  0.0000000E+00 -0.0000000E+00
  0.2026236E+00  0.1013118E+00 -0.0000000E+00   0.1000000E+01  0.0000000E+00 -0.0000000E+00
  0.2026236E+00  0.0000000E+00  0.1013118E+00   0.1000000E+01  0.0000000E+00 -0.0000000E+00
           6
 -0.1013118E+00 -0.0000000E+00  0.2026236E+00  -0.5773503E+00  0.5773503E+00  0.5773503E+00
  0.1303288E-16  0.1013118E+00  0.2026236E+00  -0.5773503E+00  0.5773503E+00  0.5773503E+00
 -0.1303288E-16  0.2026236E+00  0.1013118E+00  -0.5773503E+00  0.5773503E+00  0.5773503E+00
 -0.1013118E+00  0.2026236E+00  0.0000000E+00  -0.5773503E+00  0.5773503E+00  0.5773503E+00
 -0.2026236E+00  0.1013118E+00 -0.0000000E+00  -0.5773503E+00  0.5773503E+00  0.5773503E+00
 -0.2026236E+00  0.0000000E+00  0.1013118E+00  -0.5773503E+00  0.5773503E+00  0.5773503E+00
           4
 -0.1303288E-16  0.2026236E+00  0.1013118E+00   0.0000000E+00  0.1000000E+01 -0.1690092E-15
  0.1013118E+00  0.2026236E+00  0.0000000E+00   0.0000000E+00  0.1000000E+01 -0.1690092E-15
  0.2606576E-16  0.2026236E+00 -0.1013118E+00   0.0000000E+00  0.1000000E+01 -0.1690092E-15
 -0.1013118E+00  0.2026236E+00  0.0000000E+00   0.0000000E+00  0.1000000E+01 -0.1690092E-15
           4
 -0.2606576E-16 -0.1013118E+00  0.2026236E+00  -0.0000000E+00 -0.0000000E+00  0.1000000E+01
  0.1013118E+00 -0.0000000E+00  0.2026236E+00  -0.0000000E+00 -0.0000000E+00  0.1000000E+01
  0.1303288E-16  0.1013118E+00  0.2026236E+00  -0.0000000E+00 -0.0000000E+00  0.1000000E+01
 -0.1013118E+00 -0.0000000E+00  0.2026236E+00  -0.0000000E+00 -0.0000000E+00  0.1000000E+01
           6
  0.1303288E-16  0.1013118E+00  0.2026236E+00   0.5773503E+00  0.5773503E+00  0.5773503E+00
  0.1013118E+00 -0.0000000E+00  0.2026236E+00   0.5773503E+00  0.5773503E+00  0.5773503E+00
  0.2026236E+00  0.0000000E+00  0.1013118E+00   0.5773503E+00  0.5773503E+00  0.5773503E+00
  0.2026236E+00  0.1013118E+00 -0.0000000E+00   0.5773503E+00  0.5773503E+00  0.5773503E+00
  0.1013118E+00  0.2026236E+00  0.0000000E+00   0.5773503E+00  0.5773503E+00  0.5773503E+00
 -0.1303288E-16  0.2026236E+00  0.1013118E+00   0.5773503E+00  0.5773503E+00  0.5773503E+00
 BRILLOUIN-ZONE-PRIMCELL_END
 BRILLOUIN-ZONE-CONVCELL
           6
 -0.2026236E+00  0.0000000E+00 -0.1013118E+00  -0.5773503E+00 -0.5773503E+00 -0.5773503E+00
 -0.1013118E+00 -0.0000000E+00 -0.2026236E+00  -0.5773503E+00 -0.5773503E+00 -0.5773503E+00
  0.1303288E-16 -0.1013118E+00 -0.2026236E+00  -0.5773503E+00 -0.5773503E+00 -0.5773503E+00
 -0.1303288E-16 -0.2026236E+00 -0.1013118E+00  -0.5773503E+00 -0.5773503E+00 -0.5773503E+00
 -0.1013118E+00 -0.2026236E+00  0.0000000E+00  -0.5773503E+00 -0.5773503E+00 -0.5773503E+00
 -0.2026236E+00 -0.1013118E+00 -0.0000000E+00  -0.5773503E+00 -0.5773503E+00 -0.5773503E+00
           4
 -0.1013118E+00 -0.0000000E+00 -0.2026236E+00   0.0000000E+00 -0.1690092E-15 -0.1000000E+01
 -0.1303288E-16  0.1013118E+00 -0.2026236E+00   0.0000000E+00 -0.1690092E-15 -0.1000000E+01
  0.1013118E+00 -0.0000000E+00 -0.2026236E+00   0.0000000E+00 -0.1690092E-15 -0.1000000E+01
  0.1303288E-16 -0.1013118E+00 -0.2026236E+00   0.0000000E+00 -0.1690092E-15 -0.1000000E+01
           6
 -0.1303288E-16 -0.2026236E+00 -0.1013118E+00   0.5773503E+00 -0.5773503E+00 -0.5773503E+00
  0.1303288E-16 -0.1013118E+00 -0.2026236E+00   0.5773503E+00 -0.5773503E+00 -0.5773503E+00
  0.1013118E+00 -0.0000000E+00 -0.2026236E+00   0.5773503E+00 -0.5773503E+00 -0.5773503E+00
  0.2026236E+00  0.0000000E+00 -0.1013118E+00   0.5773503E+00 -0.5773503E+00 -0.5773503E+00
  0.2026236E+00 -0.1013118E+00 -0.0000000E+00   0.5773503E+00 -0.5773503E+00 -0.5773503E+00
  0.1013118E+00 -0.2026236E+00  0.0000000E+00   0.5773503E+00 -0.5773503E+00 -0.5773503E+00
           6
 -0.2026236E+00  0.1013118E+00 -0.0000000E+00  -0.5773503E+00  0.5773503E+00 -0.5773503E+00
 -0.1013118E+00  0.2026236E+00  0.0000000E+00  -0.5773503E+00  0.5773503E+00 -0.5773503E+00
  0.2606576E-16  0.2026236E+00 -0.1013118E+00  -0.5773503E+00  0.5773503E+00 -0.5773503E+00
 -0.1303288E-16  0.1013118E+00 -0.2026236E+00  -0.5773503E+00  0.5773503E+00 -0.5773503E+00
 -0.1013118E+00 -0.0000000E+00 -0.2026236E+00  -0.5773503E+00  0.5773503E+00 -0.5773503E+00
 -0.2026236E+00  0.0000000E+00 -0.1013118E+00  -0.5773503E+00  0.5773503E+00 -0.5773503E+00
           4
 -0.1013118E+00 -0.2026236E+00  0.0000000E+00  -0.0000000E+00 -0.1000000E+01 -0.1690092E-15
 -0.1303288E-16 -0.2026236E+00 -0.1013118E+00  -0.0000000E+00 -0.1000000E+01 -0.1690092E-15
  0.1013118E+00 -0.2026236E+00  0.0000000E+00  -0.0000000E+00 -0.1000000E+01 -0.1690092E-15
  0.2606576E-16 -0.2026236E+00  0.1013118E+00  -0.0000000E+00 -0.1000000E+01 -0.1690092E-15
           6
 -0.2026236E+00  0.0000000E+00  0.1013118E+00  -0.5773503E+00 -0.5773503E+00  0.5773503E+00
 -0.2026236E+00 -0.1013118E+00 -0.0000000E+00  -0.5773503E+00 -0.5773503E+00  0.5773503E+00
 -0.1013118E+00 -0.2026236E+00  0.0000000E+00  -0.5773503E+00 -0.5773503E+00  0.5773503E+00
  0.2606576E-16 -0.2026236E+00  0.1013118E+00  -0.5773503E+00 -0.5773503E+00  0.5773503E+00
 -0.2606576E-16 -0.1013118E+00  0.2026236E+00  -0.5773503E+00 -0.5773503E+00  0.5773503E+00
 -0.1013118E+00 -0.0000000E+00  0.2026236E+00  -0.5773503E+00 -0.5773503E+00  0.5773503E+00
           4
 -0.2026236E+00  0.0000000E+00  0.1013118E+00  -0.1000000E+01 -0.0000000E+00  0.0000000E+00
 -0.2026236E+00  0.1013118E+00 -0.0000000E+00  -0.1000000E+01 -0.0000000E+00  0.0000000E+00
 -0.2026236E+00  0.0000000E+00 -0.1013118E+00  -0.1000000E+01 -0.0000000E+00  0.0000000E+00
 -0.2026236E+00 -0.1013118E+00 -0.0000000E+00  -0.1000000E+01 -0.0000000E+00  0.0000000E+00
           6
  0.1013118E+00  0.2026236E+00  0.0000000E+00   0.5773503E+00  0.5773503E+00 -0.5773503E+00
  0.2026236E+00  0.1013118E+00 -0.0000000E+00   0.5773503E+00  0.5773503E+00 -0.5773503E+00
  0.2026236E+00  0.0000000E+00 -0.1013118E+00   0.5773503E+00  0.5773503E+00 -0.5773503E+00
  0.1013118E+00 -0.0000000E+00 -0.2026236E+00   0.5773503E+00  0.5773503E+00 -0.5773503E+00
 -0.1303288E-16  0.1013118E+00 -0.2026236E+00   0.5773503E+00  0.5773503E+00 -0.5773503E+00
  0.2606576E-16  0.2026236E+00 -0.1013118E+00   0.5773503E+00  0.5773503E+00 -0.5773503E+00
           6
  0.2606576E-16 -0.2026236E+00  0.1013118E+00   0.5773503E+00 -0.5773503E+00  0.5773503E+00
  0.1013118E+00 -0.2026236E+00  0.0000000E+00   0.5773503E+00 -0.5773503E+00  0.5773503E+00
  0.2026236E+00 -0.1013118E+00 -0.0000000E+00   0.5773503E+00 -0.5773503E+00  0.5773503E+00
  0.2026236E+00  0.0000000E+00  0.1013118E+00   0.5773503E+00 -0.5773503E+00  0.5773503E+00
  0.1013118E+00 -0.0000000E+00  0.2026236E+00   0.5773503E+00 -0.5773503E+00  0.5773503E+00
 -0.2606576E-16 -0.1013118E+00  0.2026236E+00   0.5773503E+00 -0.5773503E+00  0.5773503E+00
           4
  0.2026236E+00 -0.1013118E+00 -0.0000000E+00   0.1000000E+01  0.0000000E+00 -0.0000000E+00
  0.2026236E+00  0.0000000E+00 -0.1013118E+00   0.1000000E+01  0.0000000E+00 -0.0000000E+00
  0.2026236E+00  0.1013118E+00 -0.0000000E+00   0.1000000E+01  0.0000000E+00 -0.0000000E+00
  0.2026236E+00  0.0000000E+00  0.1013118E+00   0.1000000E+01  0.0000000E+00 -0.0000000E+00
           6
 -0.1013118E+00 -0.0000000E+00  0.2026236E+00  -0.5773503E+00  0.5773503E+00  0.5773503E+00
  0.1303288E-16  0.1013118E+00  0.2026236E+00  -0.5773503E+00  0.5773503E+00  0.5773503E+00
 -0.1303288E-16  0.2026236E+00  0.1013118E+00  -0.5773503E+00  0.5773503E+00  0.5773503E+00
 -0.1013118E+00  0.2026236E+00  0.0000000E+00  -0.5773503E+00  0.5773503E+00  0.5773503E+00
 -0.2026236E+00  0.1013118E+00 -0.0000000E+00  -0.5773503E+00  0.5773503E+00  0.5773503E+00
 -0.2026236E+00  0.0000000E+00  0.1013118E+00  -0.5773503E+00  0.5773503E+00  0.5773503E+00
           4
 -0.1303288E-16  0.2026236E+00  0.1013118E+00   0.0000000E+00  0.1000000E+01 -0.1690092E-15
  0.1013118E+00  0.2026236E+00  0.0000000E+00   0.0000000E+00  0.1000000E+01 -0.1690092E-15
  0.2606576E-16  0.2026236E+00 -0.1013118E+00   0.0000000E+00  0.1000000E+01 -0.1690092E-15
 -0.1013118E+00  0.2026236E+00  0.0000000E+00   0.0000000E+00  0.1000000E+01 -0.1690092E-15
           4
 -0.2606576E-16 -0.1013118E+00  0.2026236E+00  -0.0000000E+00 -0.0000000E+00  0.1000000E+01
  0.1013118E+00 -0.0000000E+00  0.2026236E+00  -0.0000000E+00 -0.0000000E+00  0.1000000E+01
  0.1303288E-16  0.1013118E+00  0.2026236E+00  -0.0000000E+00 -0.0000000E+00  0.1000000E+01
 -0.1013118E+00 -0.0000000E+00  0.2026236E+00  -0.0000000E+00 -0.0000000E+00  0.1000000E+01
           6
  0.1303288E-16  0.1013118E+00  0.2026236E+00   0.5773503E+00  0.5773503E+00  0.5773503E+00
  0.1013118E+00 -0.0000000E+00  0.2026236E+00   0.5773503E+00  0.5773503E+00  0.5773503E+00
  0.2026236E+00  0.0000000E+00  0.1013118E+00   0.5773503E+00  0.5773503E+00  0.5773503E+00
  0.2026236E+00  0.1013118E+00 -0.0000000E+00   0.5773503E+00  0.5773503E+00  0.5773503E+00
  0.1013118E+00  0.2026236E+00  0.0000000E+00   0.5773503E+00  0.5773503E+00  0.5773503E+00
 -0.1303288E-16  0.2026236E+00  0.1013118E+00   0.5773503E+00  0.5773503E+00  0.5773503E+00
 BRILLOUIN-ZONE-CONVCELL_END
 ATOMS
   25    3.7014461400    3.7014461400    3.7014461400    0.0000000000   -0.0000000000    0.0000000000
   16    0.0000000000    0.0000000000    0.0000000000    0.0000000000    0.0000000000    0.0000000000
   16    2.4676301070    2.4676301070    0.0000000000    0.0000000000    0.0000000000    0.0000000000
   16    2.4676301070    0.0000000000    2.4676301070    0.0000000000    0.0000000000    0.0000000000
   16    4.9352602140    2.4676301070    2.4676301070    0.0000000000    0.0000000000    0.0000000000
   16    0.0000000000    2.4676301070    2.4676301070    0.0000000000    0.0000000000    0.0000000000
   16    2.4676301070    4.9352602140    2.4676301070    0.0000000000    0.0000000000    0.0000000000
   16    2.4676301070    2.4676301070    4.9352602140    0.0000000000    0.0000000000    0.0000000000
   16    4.9352602140    4.9352602140    4.9352602140    0.0000000000    0.0000000000    0.0000000000
 FRAMES
1      0.0000000000    0.0000000000    0.0000000000      0.0000000000    2.4676301070    2.4676301070
1      0.0000000000    0.0000000000    0.0000000000      2.4676301070    0.0000000000    2.4676301070
1      0.0000000000    0.0000000000    0.0000000000      2.4676301070    2.4676301070    0.0000000000
1      2.4676301070    2.4676301070    0.0000000000      2.4676301070    4.9352602140    2.4676301070
1      2.4676301070    2.4676301070    0.0000000000      4.9352602140    2.4676301070    2.4676301070
1      2.4676301070    0.0000000000    2.4676301070      2.4676301070    2.4676301070    4.9352602140
1      2.4676301070    0.0000000000    2.4676301070      4.9352602140    2.4676301070    2.4676301070
1      4.9352602140    2.4676301070    2.4676301070      4.9352602140    4.9352602140    4.9352602140
1      0.0000000000    2.4676301070    2.4676301070      2.4676301070    2.4676301070    4.9352602140
1      0.0000000000    2.4676301070    2.4676301070      2.4676301070    4.9352602140    2.4676301070
1      2.4676301070    4.9352602140    2.4676301070      4.9352602140    4.9352602140    4.9352602140
1      2.4676301070    2.4676301070    4.9352602140      4.9352602140    4.9352602140    4.9352602140
