 INFO
nunit      1    1    1
unit   cell
celltype   primcell
shape   parapipedal
 END_INFO
 DIM-GROUP
           3           9
 PRIMVEC
    2.4543356340    0.0000000000    0.0000000000
   -1.2271690510    2.1255172440    0.0000000000
    0.0000000000    0.0000000000    6.0908936710
 CONVVEC
    2.4543356340    0.0000000000    0.0000000000
   -1.2271690510    2.1255172440    0.0000000000
    0.0000000000    0.0000000000    6.0908936710
 PRIMCOORD
           4           1
  6      0.0000000000     0.0000000000     1.5227234610     0.0000000000     0.0000000000     0.0000000000
  6      0.0000000000     0.0000000000     4.5681703830     0.0000000000    -0.0000000000     0.0000000000
  6      0.0000000010     1.4170114970     1.5227234610     0.0000000000     0.0000000000     0.0000000000
  6      1.2271679540     0.7085057480     4.5681703830    -0.0000000000    -0.0000000000     0.0000000000
 CONVCOORD
           4           1
  6      0.0000000000     0.0000000000     1.5227234610
  6      0.0000000000     0.0000000000     4.5681703830
  6      0.0000000010     1.4170114970     1.5227234610
  6      1.2271679540     0.7085057480     4.5681703830
 RECIP-PRIMVEC
    0.4074422366    0.2352370954   -0.0000000000

    0.0000000000    0.4704737178    0.0000000000

    0.0000000000   -0.0000000000    0.1641795201

 RECIP-CONVVEC
    0.4074422366    0.2352370954   -0.0000000000

    0.0000000000    0.4704737178    0.0000000000

    0.0000000000   -0.0000000000    0.1641795201

 WIGNER-SEITZ-PRIMCELL
           4
 -0.1227168E+01  0.7085058E+00 -0.3045447E+01  -0.1000000E+01 -0.0000000E+00 -0.0000000E+00
 -0.1227168E+01 -0.7085058E+00 -0.3045447E+01  -0.1000000E+01 -0.0000000E+00 -0.0000000E+00
 -0.1227168E+01 -0.7085058E+00  0.3045447E+01  -0.1000000E+01 -0.0000000E+00 -0.0000000E+00
 -0.1227168E+01  0.7085058E+00  0.3045447E+01  -0.1000000E+01 -0.0000000E+00 -0.0000000E+00
           4
 -0.1227168E+01  0.7085058E+00  0.3045447E+01  -0.5000003E+00  0.8660252E+00  0.0000000E+00
 -0.1234000E-05  0.1417011E+01  0.3045447E+01  -0.5000003E+00  0.8660252E+00  0.0000000E+00
 -0.1234000E-05  0.1417011E+01 -0.3045447E+01  -0.5000003E+00  0.8660252E+00  0.0000000E+00
 -0.1227168E+01  0.7085058E+00 -0.3045447E+01  -0.5000003E+00  0.8660252E+00  0.0000000E+00
           4
 -0.1227168E+01 -0.7085058E+00 -0.3045447E+01  -0.4999996E+00 -0.8660256E+00 -0.0000000E+00
  0.1234000E-05 -0.1417011E+01 -0.3045447E+01  -0.4999996E+00 -0.8660256E+00 -0.0000000E+00
  0.1234000E-05 -0.1417011E+01  0.3045447E+01  -0.4999996E+00 -0.8660256E+00 -0.0000000E+00
 -0.1227168E+01 -0.7085058E+00  0.3045447E+01  -0.4999996E+00 -0.8660256E+00 -0.0000000E+00
           6
 -0.1227168E+01 -0.7085058E+00 -0.3045447E+01   0.5107675E-15  0.0000000E+00 -0.1000000E+01
 -0.1227168E+01  0.7085058E+00 -0.3045447E+01   0.5107675E-15  0.0000000E+00 -0.1000000E+01
 -0.1234000E-05  0.1417011E+01 -0.3045447E+01   0.5107675E-15  0.0000000E+00 -0.1000000E+01
  0.1227168E+01  0.7085058E+00 -0.3045447E+01   0.5107675E-15  0.0000000E+00 -0.1000000E+01
  0.1227168E+01 -0.7085058E+00 -0.3045447E+01   0.5107675E-15  0.0000000E+00 -0.1000000E+01
  0.1234000E-05 -0.1417011E+01 -0.3045447E+01   0.5107675E-15  0.0000000E+00 -0.1000000E+01
           6
  0.1234000E-05 -0.1417011E+01  0.3045447E+01  -0.5107675E-15 -0.0000000E+00  0.1000000E+01
  0.1227168E+01 -0.7085058E+00  0.3045447E+01  -0.5107675E-15 -0.0000000E+00  0.1000000E+01
  0.1227168E+01  0.7085058E+00  0.3045447E+01  -0.5107675E-15 -0.0000000E+00  0.1000000E+01
 -0.1234000E-05  0.1417011E+01  0.3045447E+01  -0.5107675E-15 -0.0000000E+00  0.1000000E+01
 -0.1227168E+01  0.7085058E+00  0.3045447E+01  -0.5107675E-15 -0.0000000E+00  0.1000000E+01
 -0.1227168E+01 -0.7085058E+00  0.3045447E+01  -0.5107675E-15 -0.0000000E+00  0.1000000E+01
           4
 -0.1234000E-05  0.1417011E+01  0.3045447E+01   0.4999996E+00  0.8660256E+00 -0.2359176E-16
  0.1227168E+01  0.7085058E+00  0.3045447E+01   0.4999996E+00  0.8660256E+00 -0.2359176E-16
  0.1227168E+01  0.7085058E+00 -0.3045447E+01   0.4999996E+00  0.8660256E+00 -0.2359176E-16
 -0.1234000E-05  0.1417011E+01 -0.3045447E+01   0.4999996E+00  0.8660256E+00 -0.2359176E-16
           4
  0.1234000E-05 -0.1417011E+01 -0.3045447E+01   0.5000003E+00 -0.8660252E+00 -0.1072838E-16
  0.1227168E+01 -0.7085058E+00 -0.3045447E+01   0.5000003E+00 -0.8660252E+00 -0.1072838E-16
  0.1227168E+01 -0.7085058E+00  0.3045447E+01   0.5000003E+00 -0.8660252E+00 -0.1072838E-16
  0.1234000E-05 -0.1417011E+01  0.3045447E+01   0.5000003E+00 -0.8660252E+00 -0.1072838E-16
           4
  0.1227168E+01 -0.7085058E+00  0.3045447E+01   0.1000000E+01  0.0000000E+00 -0.3645518E-16
  0.1227168E+01 -0.7085058E+00 -0.3045447E+01   0.1000000E+01  0.0000000E+00 -0.3645518E-16
  0.1227168E+01  0.7085058E+00 -0.3045447E+01   0.1000000E+01  0.0000000E+00 -0.3645518E-16
  0.1227168E+01  0.7085058E+00  0.3045447E+01   0.1000000E+01  0.0000000E+00 -0.3645518E-16
 WIGNER-SEITZ-PRIMCELL_END
 WIGNER-SEITZ-CONVCELL
           4
 -0.1227168E+01  0.7085058E+00 -0.3045447E+01  -0.1000000E+01 -0.0000000E+00 -0.0000000E+00
 -0.1227168E+01 -0.7085058E+00 -0.3045447E+01  -0.1000000E+01 -0.0000000E+00 -0.0000000E+00
 -0.1227168E+01 -0.7085058E+00  0.3045447E+01  -0.1000000E+01 -0.0000000E+00 -0.0000000E+00
 -0.1227168E+01  0.7085058E+00  0.3045447E+01  -0.1000000E+01 -0.0000000E+00 -0.0000000E+00
           4
 -0.1227168E+01  0.7085058E+00  0.3045447E+01  -0.5000003E+00  0.8660252E+00  0.0000000E+00
 -0.1234000E-05  0.1417011E+01  0.3045447E+01  -0.5000003E+00  0.8660252E+00  0.0000000E+00
 -0.1234000E-05  0.1417011E+01 -0.3045447E+01  -0.5000003E+00  0.8660252E+00  0.0000000E+00
 -0.1227168E+01  0.7085058E+00 -0.3045447E+01  -0.5000003E+00  0.8660252E+00  0.0000000E+00
           4
 -0.1227168E+01 -0.7085058E+00 -0.3045447E+01  -0.4999996E+00 -0.8660256E+00 -0.0000000E+00
  0.1234000E-05 -0.1417011E+01 -0.3045447E+01  -0.4999996E+00 -0.8660256E+00 -0.0000000E+00
  0.1234000E-05 -0.1417011E+01  0.3045447E+01  -0.4999996E+00 -0.8660256E+00 -0.0000000E+00
 -0.1227168E+01 -0.7085058E+00  0.3045447E+01  -0.4999996E+00 -0.8660256E+00 -0.0000000E+00
           6
 -0.1227168E+01 -0.7085058E+00 -0.3045447E+01   0.5107675E-15  0.0000000E+00 -0.1000000E+01
 -0.1227168E+01  0.7085058E+00 -0.3045447E+01   0.5107675E-15  0.0000000E+00 -0.1000000E+01
 -0.1234000E-05  0.1417011E+01 -0.3045447E+01   0.5107675E-15  0.0000000E+00 -0.1000000E+01
  0.1227168E+01  0.7085058E+00 -0.3045447E+01   0.5107675E-15  0.0000000E+00 -0.1000000E+01
  0.1227168E+01 -0.7085058E+00 -0.3045447E+01   0.5107675E-15  0.0000000E+00 -0.1000000E+01
  0.1234000E-05 -0.1417011E+01 -0.3045447E+01   0.5107675E-15  0.0000000E+00 -0.1000000E+01
           6
  0.1234000E-05 -0.1417011E+01  0.3045447E+01  -0.5107675E-15 -0.0000000E+00  0.1000000E+01
  0.1227168E+01 -0.7085058E+00  0.3045447E+01  -0.5107675E-15 -0.0000000E+00  0.1000000E+01
  0.1227168E+01  0.7085058E+00  0.3045447E+01  -0.5107675E-15 -0.0000000E+00  0.1000000E+01
 -0.1234000E-05  0.1417011E+01  0.3045447E+01  -0.5107675E-15 -0.0000000E+00  0.1000000E+01
 -0.1227168E+01  0.7085058E+00  0.3045447E+01  -0.5107675E-15 -0.0000000E+00  0.1000000E+01
 -0.1227168E+01 -0.7085058E+00  0.3045447E+01  -0.5107675E-15 -0.0000000E+00  0.1000000E+01
           4
 -0.1234000E-05  0.1417011E+01  0.3045447E+01   0.4999996E+00  0.8660256E+00 -0.2359176E-16
  0.1227168E+01  0.7085058E+00  0.3045447E+01   0.4999996E+00  0.8660256E+00 -0.2359176E-16
  0.1227168E+01  0.7085058E+00 -0.3045447E+01   0.4999996E+00  0.8660256E+00 -0.2359176E-16
 -0.1234000E-05  0.1417011E+01 -0.3045447E+01   0.4999996E+00  0.8660256E+00 -0.2359176E-16
           4
  0.1234000E-05 -0.1417011E+01 -0.3045447E+01   0.5000003E+00 -0.8660252E+00 -0.1072838E-16
  0.1227168E+01 -0.7085058E+00 -0.3045447E+01   0.5000003E+00 -0.8660252E+00 -0.1072838E-16
  0.1227168E+01 -0.7085058E+00  0.3045447E+01   0.5000003E+00 -0.8660252E+00 -0.1072838E-16
  0.1234000E-05 -0.1417011E+01  0.3045447E+01   0.5000003E+00 -0.8660252E+00 -0.1072838E-16
           4
  0.1227168E+01 -0.7085058E+00  0.3045447E+01   0.1000000E+01  0.0000000E+00 -0.3645518E-16
  0.1227168E+01 -0.7085058E+00 -0.3045447E+01   0.1000000E+01  0.0000000E+00 -0.3645518E-16
  0.1227168E+01  0.7085058E+00 -0.3045447E+01   0.1000000E+01  0.0000000E+00 -0.3645518E-16
  0.1227168E+01  0.7085058E+00  0.3045447E+01   0.1000000E+01  0.0000000E+00 -0.3645518E-16
 WIGNER-SEITZ-CONVCELL_END
 BRILLOUIN-ZONE-PRIMCELL
           4
 -0.2716281E+00 -0.2365465E-06  0.8208976E-01  -0.8660252E+00 -0.5000003E+00  0.1678653E-15
 -0.2716281E+00 -0.2365465E-06 -0.8208976E-01  -0.8660252E+00 -0.5000003E+00  0.1678653E-15
 -0.1358141E+00 -0.2352369E+00 -0.8208976E-01  -0.8660252E+00 -0.5000003E+00  0.1678653E-15
 -0.1358141E+00 -0.2352369E+00  0.8208976E-01  -0.8660252E+00 -0.5000003E+00  0.1678653E-15
           4
 -0.1358141E+00  0.2352369E+00  0.8208976E-01  -0.8660256E+00  0.4999996E+00  0.8393267E-16
 -0.1358141E+00  0.2352369E+00 -0.8208976E-01  -0.8660256E+00  0.4999996E+00  0.8393267E-16
 -0.2716281E+00 -0.2365465E-06 -0.8208976E-01  -0.8660256E+00  0.4999996E+00  0.8393267E-16
 -0.2716281E+00 -0.2365465E-06  0.8208976E-01  -0.8660256E+00  0.4999996E+00  0.8393267E-16
           4
 -0.1358141E+00 -0.2352369E+00 -0.8208976E-01  -0.0000000E+00 -0.1000000E+01 -0.2928140E-15
  0.1358141E+00 -0.2352369E+00 -0.8208976E-01  -0.0000000E+00 -0.1000000E+01 -0.2928140E-15
  0.1358141E+00 -0.2352369E+00  0.8208976E-01  -0.0000000E+00 -0.1000000E+01 -0.2928140E-15
 -0.1358141E+00 -0.2352369E+00  0.8208976E-01  -0.0000000E+00 -0.1000000E+01 -0.2928140E-15
           6
 -0.2716281E+00 -0.2365465E-06 -0.8208976E-01   0.0000000E+00  0.2714874E-16 -0.1000000E+01
 -0.1358141E+00  0.2352369E+00 -0.8208976E-01   0.0000000E+00  0.2714874E-16 -0.1000000E+01
  0.1358141E+00  0.2352369E+00 -0.8208976E-01   0.0000000E+00  0.2714874E-16 -0.1000000E+01
  0.2716281E+00  0.2365465E-06 -0.8208976E-01   0.0000000E+00  0.2714874E-16 -0.1000000E+01
  0.1358141E+00 -0.2352369E+00 -0.8208976E-01   0.0000000E+00  0.2714874E-16 -0.1000000E+01
 -0.1358141E+00 -0.2352369E+00 -0.8208976E-01   0.0000000E+00  0.2714874E-16 -0.1000000E+01
           6
 -0.1358141E+00 -0.2352369E+00  0.8208976E-01  -0.0000000E+00 -0.5429747E-16  0.1000000E+01
  0.1358141E+00 -0.2352369E+00  0.8208976E-01  -0.0000000E+00 -0.5429747E-16  0.1000000E+01
  0.2716281E+00  0.2365465E-06  0.8208976E-01  -0.0000000E+00 -0.5429747E-16  0.1000000E+01
  0.1358141E+00  0.2352369E+00  0.8208976E-01  -0.0000000E+00 -0.5429747E-16  0.1000000E+01
 -0.1358141E+00  0.2352369E+00  0.8208976E-01  -0.0000000E+00 -0.5429747E-16  0.1000000E+01
 -0.2716281E+00 -0.2365465E-06  0.8208976E-01  -0.0000000E+00 -0.5429747E-16  0.1000000E+01
           4
 -0.1358141E+00  0.2352369E+00  0.8208976E-01   0.2043645E-15  0.1000000E+01 -0.2928140E-15
  0.1358141E+00  0.2352369E+00  0.8208976E-01   0.2043645E-15  0.1000000E+01 -0.2928140E-15
  0.1358141E+00  0.2352369E+00 -0.8208976E-01   0.2043645E-15  0.1000000E+01 -0.2928140E-15
 -0.1358141E+00  0.2352369E+00 -0.8208976E-01   0.2043645E-15  0.1000000E+01 -0.2928140E-15
           4
  0.1358141E+00 -0.2352369E+00 -0.8208976E-01   0.8660256E+00 -0.4999996E+00 -0.0000000E+00
  0.2716281E+00  0.2365465E-06 -0.8208976E-01   0.8660256E+00 -0.4999996E+00 -0.0000000E+00
  0.2716281E+00  0.2365465E-06  0.8208976E-01   0.8660256E+00 -0.4999996E+00 -0.0000000E+00
  0.1358141E+00 -0.2352369E+00  0.8208976E-01   0.8660256E+00 -0.4999996E+00 -0.0000000E+00
           4
  0.2716281E+00  0.2365465E-06  0.8208976E-01   0.8660252E+00  0.5000003E+00 -0.3111909E-15
  0.2716281E+00  0.2365465E-06 -0.8208976E-01   0.8660252E+00  0.5000003E+00 -0.3111909E-15
  0.1358141E+00  0.2352369E+00 -0.8208976E-01   0.8660252E+00  0.5000003E+00 -0.3111909E-15
  0.1358141E+00  0.2352369E+00  0.8208976E-01   0.8660252E+00  0.5000003E+00 -0.3111909E-15
 BRILLOUIN-ZONE-PRIMCELL_END
 BRILLOUIN-ZONE-CONVCELL
           4
 -0.2716281E+00 -0.2365465E-06  0.8208976E-01  -0.8660252E+00 -0.5000003E+00  0.1678653E-15
 -0.2716281E+00 -0.2365465E-06 -0.8208976E-01  -0.8660252E+00 -0.5000003E+00  0.1678653E-15
 -0.1358141E+00 -0.2352369E+00 -0.8208976E-01  -0.8660252E+00 -0.5000003E+00  0.1678653E-15
 -0.1358141E+00 -0.2352369E+00  0.8208976E-01  -0.8660252E+00 -0.5000003E+00  0.1678653E-15
           4
 -0.1358141E+00  0.2352369E+00  0.8208976E-01  -0.8660256E+00  0.4999996E+00  0.8393267E-16
 -0.1358141E+00  0.2352369E+00 -0.8208976E-01  -0.8660256E+00  0.4999996E+00  0.8393267E-16
 -0.2716281E+00 -0.2365465E-06 -0.8208976E-01  -0.8660256E+00  0.4999996E+00  0.8393267E-16
 -0.2716281E+00 -0.2365465E-06  0.8208976E-01  -0.8660256E+00  0.4999996E+00  0.8393267E-16
           4
 -0.1358141E+00 -0.2352369E+00 -0.8208976E-01  -0.0000000E+00 -0.1000000E+01 -0.2928140E-15
  0.1358141E+00 -0.2352369E+00 -0.8208976E-01  -0.0000000E+00 -0.1000000E+01 -0.2928140E-15
  0.1358141E+00 -0.2352369E+00  0.8208976E-01  -0.0000000E+00 -0.1000000E+01 -0.2928140E-15
 -0.1358141E+00 -0.2352369E+00  0.8208976E-01  -0.0000000E+00 -0.1000000E+01 -0.2928140E-15
           6
 -0.2716281E+00 -0.2365465E-06 -0.8208976E-01   0.0000000E+00  0.2714874E-16 -0.1000000E+01
 -0.1358141E+00  0.2352369E+00 -0.8208976E-01   0.0000000E+00  0.2714874E-16 -0.1000000E+01
  0.1358141E+00  0.2352369E+00 -0.8208976E-01   0.0000000E+00  0.2714874E-16 -0.1000000E+01
  0.2716281E+00  0.2365465E-06 -0.8208976E-01   0.0000000E+00  0.2714874E-16 -0.1000000E+01
  0.1358141E+00 -0.2352369E+00 -0.8208976E-01   0.0000000E+00  0.2714874E-16 -0.1000000E+01
 -0.1358141E+00 -0.2352369E+00 -0.8208976E-01   0.0000000E+00  0.2714874E-16 -0.1000000E+01
           6
 -0.1358141E+00 -0.2352369E+00  0.8208976E-01  -0.0000000E+00 -0.5429747E-16  0.1000000E+01
  0.1358141E+00 -0.2352369E+00  0.8208976E-01  -0.0000000E+00 -0.5429747E-16  0.1000000E+01
  0.2716281E+00  0.2365465E-06  0.8208976E-01  -0.0000000E+00 -0.5429747E-16  0.1000000E+01
  0.1358141E+00  0.2352369E+00  0.8208976E-01  -0.0000000E+00 -0.5429747E-16  0.1000000E+01
 -0.1358141E+00  0.2352369E+00  0.8208976E-01  -0.0000000E+00 -0.5429747E-16  0.1000000E+01
 -0.2716281E+00 -0.2365465E-06  0.8208976E-01  -0.0000000E+00 -0.5429747E-16  0.1000000E+01
           4
 -0.1358141E+00  0.2352369E+00  0.8208976E-01   0.2043645E-15  0.1000000E+01 -0.2928140E-15
  0.1358141E+00  0.2352369E+00  0.8208976E-01   0.2043645E-15  0.1000000E+01 -0.2928140E-15
  0.1358141E+00  0.2352369E+00 -0.8208976E-01   0.2043645E-15  0.1000000E+01 -0.2928140E-15
 -0.1358141E+00  0.2352369E+00 -0.8208976E-01   0.2043645E-15  0.1000000E+01 -0.2928140E-15
           4
  0.1358141E+00 -0.2352369E+00 -0.8208976E-01   0.8660256E+00 -0.4999996E+00 -0.0000000E+00
  0.2716281E+00  0.2365465E-06 -0.8208976E-01   0.8660256E+00 -0.4999996E+00 -0.0000000E+00
  0.2716281E+00  0.2365465E-06  0.8208976E-01   0.8660256E+00 -0.4999996E+00 -0.0000000E+00
  0.1358141E+00 -0.2352369E+00  0.8208976E-01   0.8660256E+00 -0.4999996E+00 -0.0000000E+00
           4
  0.2716281E+00  0.2365465E-06  0.8208976E-01   0.8660252E+00  0.5000003E+00 -0.3111909E-15
  0.2716281E+00  0.2365465E-06 -0.8208976E-01   0.8660252E+00  0.5000003E+00 -0.3111909E-15
  0.1358141E+00  0.2352369E+00 -0.8208976E-01   0.8660252E+00  0.5000003E+00 -0.3111909E-15
  0.1358141E+00  0.2352369E+00  0.8208976E-01   0.8660252E+00  0.5000003E+00 -0.3111909E-15
 BRILLOUIN-ZONE-CONVCELL_END
 ATOMS
    6    0.0000000000    0.0000000000    1.5227234610    0.0000000000    0.0000000000    0.0000000000
    6    0.0000000000    0.0000000000    4.5681703830    0.0000000000   -0.0000000000    0.0000000000
    6    0.0000000010    1.4170114970    1.5227234610    0.0000000000    0.0000000000    0.0000000000
    6    1.2271679540    0.7085057480    4.5681703830   -0.0000000000   -0.0000000000    0.0000000000
    6   -1.2271690510    2.1255172440    1.5227234610    0.0000000000    0.0000000000    0.0000000000
    6   -1.2271690510    2.1255172440    4.5681703830    0.0000000000   -0.0000000000    0.0000000000
    6    2.4543356340    0.0000000000    1.5227234610    0.0000000000    0.0000000000    0.0000000000
    6    2.4543356340    0.0000000000    4.5681703830    0.0000000000   -0.0000000000    0.0000000000
    6    1.2271665830    2.1255172440    1.5227234610    0.0000000000    0.0000000000    0.0000000000
    6    1.2271665830    2.1255172440    4.5681703830    0.0000000000   -0.0000000000    0.0000000000
 FRAMES
1      0.0000000000    0.0000000000    0.0000000000      2.4543356340    0.0000000000    0.0000000000
1      0.0000000000    0.0000000000    0.0000000000     -1.2271690510    2.1255172440    0.0000000000
1      0.0000000000    0.0000000000    0.0000000000      0.0000000000    0.0000000000    6.0908936710
1      0.0000000000    0.0000000000    6.0908936710      2.4543356340    0.0000000000    6.0908936710
1      0.0000000000    0.0000000000    6.0908936710     -1.2271690510    2.1255172440    6.0908936710
1     -1.2271690510    2.1255172440    0.0000000000      1.2271665830    2.1255172440    0.0000000000
1     -1.2271690510    2.1255172440    0.0000000000     -1.2271690510    2.1255172440    6.0908936710
1     -1.2271690510    2.1255172440    6.0908936710      1.2271665830    2.1255172440    6.0908936710
1      2.4543356340    0.0000000000    0.0000000000      1.2271665830    2.1255172440    0.0000000000
1      2.4543356340    0.0000000000    0.0000000000      2.4543356340    0.0000000000    6.0908936710
1      2.4543356340    0.0000000000    6.0908936710      1.2271665830    2.1255172440    6.0908936710
1      1.2271665830    2.1255172440    0.0000000000      1.2271665830    2.1255172440    6.0908936710
