 INFO
nunit      1    1    1
unit   cell
celltype   primcell
shape   parapipedal
 END_INFO
 DIM-GROUP
           3           1
 PRIMVEC
    7.8247163660    0.0000000000    0.0000000000
    3.9123581830    6.7763999910    0.0000000000
    1.9561790920    1.1294039110    3.1944248070
 CONVVEC
    7.8247163660    0.0000000000    0.0000000000
    3.9123581830    6.7763999910    0.0000000000
    1.9561790920    1.1294039110    3.1944248070
 PRIMCOORD
           8           1
 25      5.8595550860     3.3836287140     2.4091153550     0.0000216300     0.0000008200     0.0000064000
 25      7.8156731620     6.7717902170     2.4091661840    -0.0000009900    -0.0000114000     0.0000234300
 25      9.7718431800     3.3835984730     2.4091688480     0.0000014200    -0.0000135200     0.0000226300
 25     11.7280830070     6.7718306860     2.4091213230     0.0000240100     0.0000002100     0.0000049100
 16      0.0090166540     0.0045906570    -0.0133232660    -0.0000112300     0.0000057500    -0.0000143200
 16      1.9651964190     3.3927916810    -0.0133253260    -0.0000108600     0.0000056400    -0.0000147800
 16      3.9213761550     0.0045904980    -0.0133251400    -0.0000118000     0.0000065900    -0.0000144800
 16      5.8775545360     3.3927907770    -0.0133235570    -0.0000121900     0.0000059100    -0.0000137800
 CONVCOORD
           8           1
 25      5.8595550860     3.3836287140     2.4091153550
 25      7.8156731620     6.7717902170     2.4091661840
 25      9.7718431800     3.3835984730     2.4091688480
 25     11.7280830070     6.7718306860     2.4091213230
 16      0.0090166540     0.0045906570    -0.0133232660
 16      1.9651964190     3.3927916810    -0.0133253260
 16      3.9213761550     0.0045904980    -0.0133251400
 16      5.8775545360     3.3927907770    -0.0133235570
 RECIP-PRIMVEC
    0.1278001595   -0.0737854909   -0.0521741434

    0.0000000000    0.1475709818   -0.0521744145

    0.0000000000    0.0000000000    0.3130454027

 RECIP-CONVVEC
    0.1278001595   -0.0737854909   -0.0521741434

    0.0000000000    0.1475709818   -0.0521744145

    0.0000000000    0.0000000000    0.3130454027

 WIGNER-SEITZ-PRIMCELL
           4
  0.1956178E+01 -0.3388201E+01 -0.2395817E+01   0.5000001E+00 -0.2886761E+00 -0.8164962E+00
  0.1956178E+01  0.1129392E+01 -0.3993033E+01   0.5000001E+00 -0.2886761E+00 -0.8164962E+00
  0.1956180E+01  0.1129393E+01 -0.3993032E+01   0.5000001E+00 -0.2886761E+00 -0.8164962E+00
  0.1956180E+01 -0.3388199E+01 -0.2395816E+01   0.5000001E+00 -0.2886761E+00 -0.8164962E+00
           6
  0.3354575E-05 -0.4517599E+01 -0.7986046E+00  -0.5000001E+00 -0.2886761E+00 -0.8164962E+00
 -0.3912357E+01 -0.2258796E+01  0.7986083E+00  -0.5000001E+00 -0.2886761E+00 -0.8164962E+00
 -0.3912357E+01  0.2258797E+01 -0.7986076E+00  -0.5000001E+00 -0.2886761E+00 -0.8164962E+00
 -0.1956182E+01  0.3388195E+01 -0.2395820E+01  -0.5000001E+00 -0.2886761E+00 -0.8164962E+00
  0.1956178E+01  0.1129392E+01 -0.3993033E+01  -0.5000001E+00 -0.2886761E+00 -0.8164962E+00
  0.1956178E+01 -0.3388201E+01 -0.2395817E+01  -0.5000001E+00 -0.2886761E+00 -0.8164962E+00
           4
  0.1956180E+01  0.1129393E+01 -0.3993032E+01  -0.3654423E-09  0.5773497E+00 -0.8164970E+00
  0.1956178E+01  0.1129392E+01 -0.3993033E+01  -0.3654423E-09  0.5773497E+00 -0.8164970E+00
 -0.1956182E+01  0.3388195E+01 -0.2395820E+01  -0.3654423E-09  0.5773497E+00 -0.8164970E+00
 -0.1956180E+01  0.3388199E+01 -0.2395817E+01  -0.3654423E-09  0.5773497E+00 -0.8164970E+00
           6
  0.1956180E+01 -0.3388199E+01  0.2395817E+01   0.5000002E+00 -0.8660253E+00  0.8838881E-10
  0.1956178E+01 -0.3388201E+01  0.2395816E+01   0.5000002E+00 -0.8660253E+00  0.8838881E-10
  0.3354575E-05 -0.4517599E+01 -0.7986046E+00   0.5000002E+00 -0.8660253E+00  0.8838881E-10
  0.1956178E+01 -0.3388201E+01 -0.2395817E+01   0.5000002E+00 -0.8660253E+00  0.8838881E-10
  0.1956180E+01 -0.3388199E+01 -0.2395816E+01   0.5000002E+00 -0.8660253E+00  0.8838881E-10
  0.3912355E+01 -0.2258801E+01  0.7986046E+00   0.5000002E+00 -0.8660253E+00  0.8838881E-10
           6
  0.1956180E+01 -0.3388199E+01 -0.2395816E+01   0.8660255E+00 -0.1666672E+00 -0.4714042E+00
  0.1956180E+01  0.1129393E+01 -0.3993032E+01   0.8660255E+00 -0.1666672E+00 -0.4714042E+00
  0.1956182E+01  0.1129397E+01 -0.3993029E+01   0.8660255E+00 -0.1666672E+00 -0.4714042E+00
  0.3912357E+01  0.2258796E+01 -0.7986083E+00   0.8660255E+00 -0.1666672E+00 -0.4714042E+00
  0.3912357E+01 -0.2258797E+01  0.7986076E+00   0.8660255E+00 -0.1666672E+00 -0.4714042E+00
  0.3912355E+01 -0.2258801E+01  0.7986046E+00   0.8660255E+00 -0.1666672E+00 -0.4714042E+00
           4
 -0.3912355E+01  0.2258801E+01 -0.7986046E+00  -0.6708208E+00  0.6454968E+00 -0.3651483E+00
 -0.1956180E+01  0.3388199E+01 -0.2395817E+01  -0.6708208E+00  0.6454968E+00 -0.3651483E+00
 -0.1956182E+01  0.3388195E+01 -0.2395820E+01  -0.6708208E+00  0.6454968E+00 -0.3651483E+00
 -0.3912357E+01  0.2258797E+01 -0.7986076E+00  -0.6708208E+00  0.6454968E+00 -0.3651483E+00
           6
 -0.1956182E+01 -0.1129397E+01  0.3993029E+01  -0.8660255E+00  0.1666672E+00  0.4714042E+00
 -0.1956180E+01 -0.1129393E+01  0.3993032E+01  -0.8660255E+00  0.1666672E+00  0.4714042E+00
 -0.1956180E+01  0.3388199E+01  0.2395816E+01  -0.8660255E+00  0.1666672E+00  0.4714042E+00
 -0.3912355E+01  0.2258801E+01 -0.7986046E+00  -0.8660255E+00  0.1666672E+00  0.4714042E+00
 -0.3912357E+01  0.2258797E+01 -0.7986076E+00  -0.8660255E+00  0.1666672E+00  0.4714042E+00
 -0.3912357E+01 -0.2258796E+01  0.7986083E+00  -0.8660255E+00  0.1666672E+00  0.4714042E+00
           4
 -0.3912357E+01 -0.2258796E+01  0.7986083E+00  -0.2886754E+00 -0.8333332E+00  0.4714046E+00
  0.3354575E-05 -0.4517599E+01 -0.7986046E+00  -0.2886754E+00 -0.8333332E+00  0.4714046E+00
  0.1956178E+01 -0.3388201E+01  0.2395816E+01  -0.2886754E+00 -0.8333332E+00  0.4714046E+00
 -0.1956182E+01 -0.1129397E+01  0.3993029E+01  -0.2886754E+00 -0.8333332E+00  0.4714046E+00
           6
 -0.3354575E-05  0.4517599E+01  0.7986046E+00  -0.5000002E+00  0.8660253E+00 -0.4855339E-09
 -0.1956178E+01  0.3388201E+01 -0.2395816E+01  -0.5000002E+00  0.8660253E+00 -0.4855339E-09
 -0.1956180E+01  0.3388199E+01 -0.2395817E+01  -0.5000002E+00  0.8660253E+00 -0.4855339E-09
 -0.3912355E+01  0.2258801E+01 -0.7986046E+00  -0.5000002E+00  0.8660253E+00 -0.4855339E-09
 -0.1956180E+01  0.3388199E+01  0.2395816E+01  -0.5000002E+00  0.8660253E+00 -0.4855339E-09
 -0.1956178E+01  0.3388201E+01  0.2395817E+01  -0.5000002E+00  0.8660253E+00 -0.4855339E-09
           4
 -0.3354575E-05  0.4517599E+01  0.7986046E+00   0.2886754E+00  0.8333332E+00 -0.4714046E+00
  0.3912357E+01  0.2258796E+01 -0.7986083E+00   0.2886754E+00  0.8333332E+00 -0.4714046E+00
  0.1956182E+01  0.1129397E+01 -0.3993029E+01   0.2886754E+00  0.8333332E+00 -0.4714046E+00
 -0.1956178E+01  0.3388201E+01 -0.2395816E+01   0.2886754E+00  0.8333332E+00 -0.4714046E+00
           4
 -0.1956180E+01 -0.1129393E+01  0.3993032E+01  -0.3654423E-09 -0.5773497E+00  0.8164970E+00
 -0.1956182E+01 -0.1129397E+01  0.3993029E+01  -0.3654423E-09 -0.5773497E+00  0.8164970E+00
  0.1956178E+01 -0.3388201E+01  0.2395816E+01  -0.3654423E-09 -0.5773497E+00  0.8164970E+00
  0.1956180E+01 -0.3388199E+01  0.2395817E+01  -0.3654423E-09 -0.5773497E+00  0.8164970E+00
           4
  0.1956180E+01 -0.3388199E+01  0.2395817E+01   0.6708208E+00 -0.6454968E+00  0.3651483E+00
  0.3912355E+01 -0.2258801E+01  0.7986046E+00   0.6708208E+00 -0.6454968E+00  0.3651483E+00
  0.3912357E+01 -0.2258797E+01  0.7986076E+00   0.6708208E+00 -0.6454968E+00  0.3651483E+00
  0.1956182E+01 -0.3388195E+01  0.2395820E+01   0.6708208E+00 -0.6454968E+00  0.3651483E+00
           6
  0.3912357E+01 -0.2258797E+01  0.7986076E+00   0.5000001E+00  0.2886761E+00  0.8164962E+00
  0.3912357E+01  0.2258796E+01 -0.7986083E+00   0.5000001E+00  0.2886761E+00  0.8164962E+00
 -0.3354575E-05  0.4517599E+01  0.7986046E+00   0.5000001E+00  0.2886761E+00  0.8164962E+00
 -0.1956178E+01  0.3388201E+01  0.2395817E+01   0.5000001E+00  0.2886761E+00  0.8164962E+00
 -0.1956178E+01 -0.1129392E+01  0.3993033E+01   0.5000001E+00  0.2886761E+00  0.8164962E+00
  0.1956182E+01 -0.3388195E+01  0.2395820E+01   0.5000001E+00  0.2886761E+00  0.8164962E+00
           4
 -0.1956178E+01 -0.1129392E+01  0.3993033E+01  -0.5000001E+00  0.2886761E+00  0.8164962E+00
 -0.1956178E+01  0.3388201E+01  0.2395817E+01  -0.5000001E+00  0.2886761E+00  0.8164962E+00
 -0.1956180E+01  0.3388199E+01  0.2395816E+01  -0.5000001E+00  0.2886761E+00  0.8164962E+00
 -0.1956180E+01 -0.1129393E+01  0.3993032E+01  -0.5000001E+00  0.2886761E+00  0.8164962E+00
 WIGNER-SEITZ-PRIMCELL_END
 WIGNER-SEITZ-CONVCELL
           4
  0.1956178E+01 -0.3388201E+01 -0.2395817E+01   0.5000001E+00 -0.2886761E+00 -0.8164962E+00
  0.1956178E+01  0.1129392E+01 -0.3993033E+01   0.5000001E+00 -0.2886761E+00 -0.8164962E+00
  0.1956180E+01  0.1129393E+01 -0.3993032E+01   0.5000001E+00 -0.2886761E+00 -0.8164962E+00
  0.1956180E+01 -0.3388199E+01 -0.2395816E+01   0.5000001E+00 -0.2886761E+00 -0.8164962E+00
           6
  0.3354575E-05 -0.4517599E+01 -0.7986046E+00  -0.5000001E+00 -0.2886761E+00 -0.8164962E+00
 -0.3912357E+01 -0.2258796E+01  0.7986083E+00  -0.5000001E+00 -0.2886761E+00 -0.8164962E+00
 -0.3912357E+01  0.2258797E+01 -0.7986076E+00  -0.5000001E+00 -0.2886761E+00 -0.8164962E+00
 -0.1956182E+01  0.3388195E+01 -0.2395820E+01  -0.5000001E+00 -0.2886761E+00 -0.8164962E+00
  0.1956178E+01  0.1129392E+01 -0.3993033E+01  -0.5000001E+00 -0.2886761E+00 -0.8164962E+00
  0.1956178E+01 -0.3388201E+01 -0.2395817E+01  -0.5000001E+00 -0.2886761E+00 -0.8164962E+00
           4
  0.1956180E+01  0.1129393E+01 -0.3993032E+01  -0.3654423E-09  0.5773497E+00 -0.8164970E+00
  0.1956178E+01  0.1129392E+01 -0.3993033E+01  -0.3654423E-09  0.5773497E+00 -0.8164970E+00
 -0.1956182E+01  0.3388195E+01 -0.2395820E+01  -0.3654423E-09  0.5773497E+00 -0.8164970E+00
 -0.1956180E+01  0.3388199E+01 -0.2395817E+01  -0.3654423E-09  0.5773497E+00 -0.8164970E+00
           6
  0.1956180E+01 -0.3388199E+01  0.2395817E+01   0.5000002E+00 -0.8660253E+00  0.8838881E-10
  0.1956178E+01 -0.3388201E+01  0.2395816E+01   0.5000002E+00 -0.8660253E+00  0.8838881E-10
  0.3354575E-05 -0.4517599E+01 -0.7986046E+00   0.5000002E+00 -0.8660253E+00  0.8838881E-10
  0.1956178E+01 -0.3388201E+01 -0.2395817E+01   0.5000002E+00 -0.8660253E+00  0.8838881E-10
  0.1956180E+01 -0.3388199E+01 -0.2395816E+01   0.5000002E+00 -0.8660253E+00  0.8838881E-10
  0.3912355E+01 -0.2258801E+01  0.7986046E+00   0.5000002E+00 -0.8660253E+00  0.8838881E-10
           6
  0.1956180E+01 -0.3388199E+01 -0.2395816E+01   0.8660255E+00 -0.1666672E+00 -0.4714042E+00
  0.1956180E+01  0.1129393E+01 -0.3993032E+01   0.8660255E+00 -0.1666672E+00 -0.4714042E+00
  0.1956182E+01  0.1129397E+01 -0.3993029E+01   0.8660255E+00 -0.1666672E+00 -0.4714042E+00
  0.3912357E+01  0.2258796E+01 -0.7986083E+00   0.8660255E+00 -0.1666672E+00 -0.4714042E+00
  0.3912357E+01 -0.2258797E+01  0.7986076E+00   0.8660255E+00 -0.1666672E+00 -0.4714042E+00
  0.3912355E+01 -0.2258801E+01  0.7986046E+00   0.8660255E+00 -0.1666672E+00 -0.4714042E+00
           4
 -0.3912355E+01  0.2258801E+01 -0.7986046E+00  -0.6708208E+00  0.6454968E+00 -0.3651483E+00
 -0.1956180E+01  0.3388199E+01 -0.2395817E+01  -0.6708208E+00  0.6454968E+00 -0.3651483E+00
 -0.1956182E+01  0.3388195E+01 -0.2395820E+01  -0.6708208E+00  0.6454968E+00 -0.3651483E+00
 -0.3912357E+01  0.2258797E+01 -0.7986076E+00  -0.6708208E+00  0.6454968E+00 -0.3651483E+00
           6
 -0.1956182E+01 -0.1129397E+01  0.3993029E+01  -0.8660255E+00  0.1666672E+00  0.4714042E+00
 -0.1956180E+01 -0.1129393E+01  0.3993032E+01  -0.8660255E+00  0.1666672E+00  0.4714042E+00
 -0.1956180E+01  0.3388199E+01  0.2395816E+01  -0.8660255E+00  0.1666672E+00  0.4714042E+00
 -0.3912355E+01  0.2258801E+01 -0.7986046E+00  -0.8660255E+00  0.1666672E+00  0.4714042E+00
 -0.3912357E+01  0.2258797E+01 -0.7986076E+00  -0.8660255E+00  0.1666672E+00  0.4714042E+00
 -0.3912357E+01 -0.2258796E+01  0.7986083E+00  -0.8660255E+00  0.1666672E+00  0.4714042E+00
           4
 -0.3912357E+01 -0.2258796E+01  0.7986083E+00  -0.2886754E+00 -0.8333332E+00  0.4714046E+00
  0.3354575E-05 -0.4517599E+01 -0.7986046E+00  -0.2886754E+00 -0.8333332E+00  0.4714046E+00
  0.1956178E+01 -0.3388201E+01  0.2395816E+01  -0.2886754E+00 -0.8333332E+00  0.4714046E+00
 -0.1956182E+01 -0.1129397E+01  0.3993029E+01  -0.2886754E+00 -0.8333332E+00  0.4714046E+00
           6
 -0.3354575E-05  0.4517599E+01  0.7986046E+00  -0.5000002E+00  0.8660253E+00 -0.4855339E-09
 -0.1956178E+01  0.3388201E+01 -0.2395816E+01  -0.5000002E+00  0.8660253E+00 -0.4855339E-09
 -0.1956180E+01  0.3388199E+01 -0.2395817E+01  -0.5000002E+00  0.8660253E+00 -0.4855339E-09
 -0.3912355E+01  0.2258801E+01 -0.7986046E+00  -0.5000002E+00  0.8660253E+00 -0.4855339E-09
 -0.1956180E+01  0.3388199E+01  0.2395816E+01  -0.5000002E+00  0.8660253E+00 -0.4855339E-09
 -0.1956178E+01  0.3388201E+01  0.2395817E+01  -0.5000002E+00  0.8660253E+00 -0.4855339E-09
           4
 -0.3354575E-05  0.4517599E+01  0.7986046E+00   0.2886754E+00  0.8333332E+00 -0.4714046E+00
  0.3912357E+01  0.2258796E+01 -0.7986083E+00   0.2886754E+00  0.8333332E+00 -0.4714046E+00
  0.1956182E+01  0.1129397E+01 -0.3993029E+01   0.2886754E+00  0.8333332E+00 -0.4714046E+00
 -0.1956178E+01  0.3388201E+01 -0.2395816E+01   0.2886754E+00  0.8333332E+00 -0.4714046E+00
           4
 -0.1956180E+01 -0.1129393E+01  0.3993032E+01  -0.3654423E-09 -0.5773497E+00  0.8164970E+00
 -0.1956182E+01 -0.1129397E+01  0.3993029E+01  -0.3654423E-09 -0.5773497E+00  0.8164970E+00
  0.1956178E+01 -0.3388201E+01  0.2395816E+01  -0.3654423E-09 -0.5773497E+00  0.8164970E+00
  0.1956180E+01 -0.3388199E+01  0.2395817E+01  -0.3654423E-09 -0.5773497E+00  0.8164970E+00
           4
  0.1956180E+01 -0.3388199E+01  0.2395817E+01   0.6708208E+00 -0.6454968E+00  0.3651483E+00
  0.3912355E+01 -0.2258801E+01  0.7986046E+00   0.6708208E+00 -0.6454968E+00  0.3651483E+00
  0.3912357E+01 -0.2258797E+01  0.7986076E+00   0.6708208E+00 -0.6454968E+00  0.3651483E+00
  0.1956182E+01 -0.3388195E+01  0.2395820E+01   0.6708208E+00 -0.6454968E+00  0.3651483E+00
           6
  0.3912357E+01 -0.2258797E+01  0.7986076E+00   0.5000001E+00  0.2886761E+00  0.8164962E+00
  0.3912357E+01  0.2258796E+01 -0.7986083E+00   0.5000001E+00  0.2886761E+00  0.8164962E+00
 -0.3354575E-05  0.4517599E+01  0.7986046E+00   0.5000001E+00  0.2886761E+00  0.8164962E+00
 -0.1956178E+01  0.3388201E+01  0.2395817E+01   0.5000001E+00  0.2886761E+00  0.8164962E+00
 -0.1956178E+01 -0.1129392E+01  0.3993033E+01   0.5000001E+00  0.2886761E+00  0.8164962E+00
  0.1956182E+01 -0.3388195E+01  0.2395820E+01   0.5000001E+00  0.2886761E+00  0.8164962E+00
           4
 -0.1956178E+01 -0.1129392E+01  0.3993033E+01  -0.5000001E+00  0.2886761E+00  0.8164962E+00
 -0.1956178E+01  0.3388201E+01  0.2395817E+01  -0.5000001E+00  0.2886761E+00  0.8164962E+00
 -0.1956180E+01  0.3388199E+01  0.2395816E+01  -0.5000001E+00  0.2886761E+00  0.8164962E+00
 -0.1956180E+01 -0.1129393E+01  0.3993032E+01  -0.5000001E+00  0.2886761E+00  0.8164962E+00
 WIGNER-SEITZ-CONVCELL_END
 BRILLOUIN-ZONE-PRIMCELL
           4
 -0.1437752E+00 -0.4611588E-01 -0.5217426E-01  -0.8164966E+00 -0.4714047E+00 -0.3333330E+00
 -0.1118251E+00 -0.1014549E+00 -0.5217426E-01  -0.8164966E+00 -0.4714047E+00 -0.3333330E+00
 -0.1118251E+00 -0.1014551E+00 -0.5217403E-01  -0.8164966E+00 -0.4714047E+00 -0.3333330E+00
 -0.1437752E+00 -0.4611604E-01 -0.5217403E-01  -0.8164966E+00 -0.4714047E+00 -0.3333330E+00
           6
  0.1597502E-01  0.1199015E+00  0.1043482E+00  -0.8164966E+00  0.4714047E+00  0.3333330E+00
 -0.1118251E+00  0.4611587E-01 -0.1043484E+00  -0.8164966E+00  0.4714047E+00  0.3333330E+00
 -0.1437752E+00 -0.4611588E-01 -0.5217426E-01  -0.8164966E+00  0.4714047E+00  0.3333330E+00
 -0.1437752E+00 -0.4611604E-01 -0.5217403E-01  -0.8164966E+00  0.4714047E+00  0.3333330E+00
 -0.1597503E-01  0.2766963E-01  0.1565226E+00  -0.8164966E+00  0.4714047E+00  0.3333330E+00
  0.1597502E-01  0.1199014E+00  0.1043484E+00  -0.8164966E+00  0.4714047E+00  0.3333330E+00
           3
 -0.1118251E+00 -0.1014551E+00 -0.5217403E-01  -0.4264014E+00 -0.7385493E+00 -0.5222324E+00
 -0.1597502E-01 -0.1199014E+00 -0.1043484E+00  -0.4264014E+00 -0.7385493E+00 -0.5222324E+00
 -0.1597502E-01 -0.1199015E+00 -0.1043482E+00  -0.4264014E+00 -0.7385493E+00 -0.5222324E+00
           6
 -0.1118251E+00  0.4611587E-01 -0.1043484E+00  -0.4999999E+00 -0.2886752E+00 -0.8164966E+00
 -0.1597502E-01  0.2766945E-01 -0.1565226E+00  -0.4999999E+00 -0.2886752E+00 -0.8164966E+00
  0.1597502E-01 -0.2766961E-01 -0.1565226E+00  -0.4999999E+00 -0.2886752E+00 -0.8164966E+00
 -0.1597503E-01 -0.1199014E+00 -0.1043484E+00  -0.4999999E+00 -0.2886752E+00 -0.8164966E+00
 -0.1118251E+00 -0.1014549E+00 -0.5217426E-01  -0.4999999E+00 -0.2886752E+00 -0.8164966E+00
 -0.1437752E+00 -0.4611588E-01 -0.5217426E-01  -0.4999999E+00 -0.2886752E+00 -0.8164966E+00
           6
 -0.1597502E-01  0.2766961E-01  0.1565226E+00   0.4999999E+00  0.2886752E+00  0.8164966E+00
  0.1597502E-01 -0.2766945E-01  0.1565226E+00   0.4999999E+00  0.2886752E+00  0.8164966E+00
  0.1118251E+00 -0.4611587E-01  0.1043484E+00   0.4999999E+00  0.2886752E+00  0.8164966E+00
  0.1437752E+00  0.4611588E-01  0.5217426E-01   0.4999999E+00  0.2886752E+00  0.8164966E+00
  0.1118251E+00  0.1014549E+00  0.5217426E-01   0.4999999E+00  0.2886752E+00  0.8164966E+00
  0.1597503E-01  0.1199014E+00  0.1043484E+00   0.4999999E+00  0.2886752E+00  0.8164966E+00
           4
 -0.1118251E+00 -0.1014551E+00 -0.5217402E-01   0.6132070E-16 -0.9428087E+00  0.3333344E+00
 -0.1597502E-01 -0.1199015E+00 -0.1043482E+00   0.6132070E-16 -0.9428087E+00  0.3333344E+00
  0.1118251E+00 -0.4611587E-01  0.1043484E+00   0.6132070E-16 -0.9428087E+00  0.3333344E+00
  0.1597502E-01 -0.2766945E-01  0.1565226E+00   0.6132070E-16 -0.9428087E+00  0.3333344E+00
           4
  0.1597503E-01  0.1199014E+00  0.1043484E+00   0.4264014E+00  0.7385493E+00  0.5222324E+00
  0.1118251E+00  0.1014549E+00  0.5217426E-01   0.4264014E+00  0.7385493E+00  0.5222324E+00
  0.1118251E+00  0.1014551E+00  0.5217403E-01   0.4264014E+00  0.7385493E+00  0.5222324E+00
  0.1597502E-01  0.1199015E+00  0.1043482E+00   0.4264014E+00  0.7385493E+00  0.5222324E+00
           4
  0.1597502E-01  0.1199015E+00  0.1043482E+00  -0.6132070E-16  0.9428087E+00 -0.3333344E+00
  0.1118251E+00  0.1014551E+00  0.5217402E-01  -0.6132070E-16  0.9428087E+00 -0.3333344E+00
 -0.1597502E-01  0.2766945E-01 -0.1565226E+00  -0.6132070E-16  0.9428087E+00 -0.3333344E+00
 -0.1118251E+00  0.4611587E-01 -0.1043484E+00  -0.6132070E-16  0.9428087E+00 -0.3333344E+00
           6
  0.1437752E+00  0.4611588E-01  0.5217426E-01   0.8164966E+00 -0.4714047E+00 -0.3333330E+00
  0.1118251E+00 -0.4611587E-01  0.1043484E+00   0.8164966E+00 -0.4714047E+00 -0.3333330E+00
 -0.1597502E-01 -0.1199015E+00 -0.1043482E+00   0.8164966E+00 -0.4714047E+00 -0.3333330E+00
 -0.1597502E-01 -0.1199014E+00 -0.1043484E+00   0.8164966E+00 -0.4714047E+00 -0.3333330E+00
  0.1597503E-01 -0.2766963E-01 -0.1565226E+00   0.8164966E+00 -0.4714047E+00 -0.3333330E+00
  0.1437752E+00  0.4611604E-01  0.5217403E-01   0.8164966E+00 -0.4714047E+00 -0.3333330E+00
           4
  0.1118251E+00  0.1014549E+00  0.5217426E-01   0.8164966E+00  0.4714047E+00  0.3333330E+00
  0.1437752E+00  0.4611588E-01  0.5217426E-01   0.8164966E+00  0.4714047E+00  0.3333330E+00
  0.1437752E+00  0.4611604E-01  0.5217403E-01   0.8164966E+00  0.4714047E+00  0.3333330E+00
  0.1118251E+00  0.1014551E+00  0.5217403E-01   0.8164966E+00  0.4714047E+00  0.3333330E+00
 BRILLOUIN-ZONE-PRIMCELL_END
 BRILLOUIN-ZONE-CONVCELL
           4
 -0.1437752E+00 -0.4611588E-01 -0.5217426E-01  -0.8164966E+00 -0.4714047E+00 -0.3333330E+00
 -0.1118251E+00 -0.1014549E+00 -0.5217426E-01  -0.8164966E+00 -0.4714047E+00 -0.3333330E+00
 -0.1118251E+00 -0.1014551E+00 -0.5217403E-01  -0.8164966E+00 -0.4714047E+00 -0.3333330E+00
 -0.1437752E+00 -0.4611604E-01 -0.5217403E-01  -0.8164966E+00 -0.4714047E+00 -0.3333330E+00
           6
  0.1597502E-01  0.1199015E+00  0.1043482E+00  -0.8164966E+00  0.4714047E+00  0.3333330E+00
 -0.1118251E+00  0.4611587E-01 -0.1043484E+00  -0.8164966E+00  0.4714047E+00  0.3333330E+00
 -0.1437752E+00 -0.4611588E-01 -0.5217426E-01  -0.8164966E+00  0.4714047E+00  0.3333330E+00
 -0.1437752E+00 -0.4611604E-01 -0.5217403E-01  -0.8164966E+00  0.4714047E+00  0.3333330E+00
 -0.1597503E-01  0.2766963E-01  0.1565226E+00  -0.8164966E+00  0.4714047E+00  0.3333330E+00
  0.1597502E-01  0.1199014E+00  0.1043484E+00  -0.8164966E+00  0.4714047E+00  0.3333330E+00
           3
 -0.1118251E+00 -0.1014551E+00 -0.5217403E-01  -0.4264014E+00 -0.7385493E+00 -0.5222324E+00
 -0.1597502E-01 -0.1199014E+00 -0.1043484E+00  -0.4264014E+00 -0.7385493E+00 -0.5222324E+00
 -0.1597502E-01 -0.1199015E+00 -0.1043482E+00  -0.4264014E+00 -0.7385493E+00 -0.5222324E+00
           6
 -0.1118251E+00  0.4611587E-01 -0.1043484E+00  -0.4999999E+00 -0.2886752E+00 -0.8164966E+00
 -0.1597502E-01  0.2766945E-01 -0.1565226E+00  -0.4999999E+00 -0.2886752E+00 -0.8164966E+00
  0.1597502E-01 -0.2766961E-01 -0.1565226E+00  -0.4999999E+00 -0.2886752E+00 -0.8164966E+00
 -0.1597503E-01 -0.1199014E+00 -0.1043484E+00  -0.4999999E+00 -0.2886752E+00 -0.8164966E+00
 -0.1118251E+00 -0.1014549E+00 -0.5217426E-01  -0.4999999E+00 -0.2886752E+00 -0.8164966E+00
 -0.1437752E+00 -0.4611588E-01 -0.5217426E-01  -0.4999999E+00 -0.2886752E+00 -0.8164966E+00
           6
 -0.1597502E-01  0.2766961E-01  0.1565226E+00   0.4999999E+00  0.2886752E+00  0.8164966E+00
  0.1597502E-01 -0.2766945E-01  0.1565226E+00   0.4999999E+00  0.2886752E+00  0.8164966E+00
  0.1118251E+00 -0.4611587E-01  0.1043484E+00   0.4999999E+00  0.2886752E+00  0.8164966E+00
  0.1437752E+00  0.4611588E-01  0.5217426E-01   0.4999999E+00  0.2886752E+00  0.8164966E+00
  0.1118251E+00  0.1014549E+00  0.5217426E-01   0.4999999E+00  0.2886752E+00  0.8164966E+00
  0.1597503E-01  0.1199014E+00  0.1043484E+00   0.4999999E+00  0.2886752E+00  0.8164966E+00
           4
 -0.1118251E+00 -0.1014551E+00 -0.5217402E-01   0.6132070E-16 -0.9428087E+00  0.3333344E+00
 -0.1597502E-01 -0.1199015E+00 -0.1043482E+00   0.6132070E-16 -0.9428087E+00  0.3333344E+00
  0.1118251E+00 -0.4611587E-01  0.1043484E+00   0.6132070E-16 -0.9428087E+00  0.3333344E+00
  0.1597502E-01 -0.2766945E-01  0.1565226E+00   0.6132070E-16 -0.9428087E+00  0.3333344E+00
           4
  0.1597503E-01  0.1199014E+00  0.1043484E+00   0.4264014E+00  0.7385493E+00  0.5222324E+00
  0.1118251E+00  0.1014549E+00  0.5217426E-01   0.4264014E+00  0.7385493E+00  0.5222324E+00
  0.1118251E+00  0.1014551E+00  0.5217403E-01   0.4264014E+00  0.7385493E+00  0.5222324E+00
  0.1597502E-01  0.1199015E+00  0.1043482E+00   0.4264014E+00  0.7385493E+00  0.5222324E+00
           4
  0.1597502E-01  0.1199015E+00  0.1043482E+00  -0.6132070E-16  0.9428087E+00 -0.3333344E+00
  0.1118251E+00  0.1014551E+00  0.5217402E-01  -0.6132070E-16  0.9428087E+00 -0.3333344E+00
 -0.1597502E-01  0.2766945E-01 -0.1565226E+00  -0.6132070E-16  0.9428087E+00 -0.3333344E+00
 -0.1118251E+00  0.4611587E-01 -0.1043484E+00  -0.6132070E-16  0.9428087E+00 -0.3333344E+00
           6
  0.1437752E+00  0.4611588E-01  0.5217426E-01   0.8164966E+00 -0.4714047E+00 -0.3333330E+00
  0.1118251E+00 -0.4611587E-01  0.1043484E+00   0.8164966E+00 -0.4714047E+00 -0.3333330E+00
 -0.1597502E-01 -0.1199015E+00 -0.1043482E+00   0.8164966E+00 -0.4714047E+00 -0.3333330E+00
 -0.1597502E-01 -0.1199014E+00 -0.1043484E+00   0.8164966E+00 -0.4714047E+00 -0.3333330E+00
  0.1597503E-01 -0.2766963E-01 -0.1565226E+00   0.8164966E+00 -0.4714047E+00 -0.3333330E+00
  0.1437752E+00  0.4611604E-01  0.5217403E-01   0.8164966E+00 -0.4714047E+00 -0.3333330E+00
           4
  0.1118251E+00  0.1014549E+00  0.5217426E-01   0.8164966E+00  0.4714047E+00  0.3333330E+00
  0.1437752E+00  0.4611588E-01  0.5217426E-01   0.8164966E+00  0.4714047E+00  0.3333330E+00
  0.1437752E+00  0.4611604E-01  0.5217403E-01   0.8164966E+00  0.4714047E+00  0.3333330E+00
  0.1118251E+00  0.1014551E+00  0.5217403E-01   0.8164966E+00  0.4714047E+00  0.3333330E+00
 BRILLOUIN-ZONE-CONVCELL_END
 ATOMS
   25    5.8595550860    3.3836287140    2.4091153550    0.0000216300    0.0000008200    0.0000064000
   25    7.8156731620    6.7717902170    2.4091661840   -0.0000009900   -0.0000114000    0.0000234300
   25    9.7718431800    3.3835984730    2.4091688480    0.0000014200   -0.0000135200    0.0000226300
   25   11.7280830070    6.7718306860    2.4091213230    0.0000240100    0.0000002100    0.0000049100
   16    1.9651957460    1.1339945680    3.1811015410   -0.0000112300    0.0000057500   -0.0000143200
   16    3.9213755110    4.5221955920    3.1810994810   -0.0000108600    0.0000056400   -0.0000147800
   16    5.8775552470    1.1339944090    3.1810996670   -0.0000118000    0.0000065900   -0.0000144800
   16    7.8337336280    4.5221946880    3.1811012500   -0.0000121900    0.0000059100   -0.0000137800
 FRAMES
1      0.0000000000    0.0000000000    0.0000000000      7.8247163660    0.0000000000    0.0000000000
1      0.0000000000    0.0000000000    0.0000000000      3.9123581830    6.7763999910    0.0000000000
1      0.0000000000    0.0000000000    0.0000000000      1.9561790920    1.1294039110    3.1944248070
1      1.9561790920    1.1294039110    3.1944248070      9.7808954580    1.1294039110    3.1944248070
1      1.9561790920    1.1294039110    3.1944248070      5.8685372750    7.9058039020    3.1944248070
1      3.9123581830    6.7763999910    0.0000000000     11.7370745490    6.7763999910    0.0000000000
1      3.9123581830    6.7763999910    0.0000000000      5.8685372750    7.9058039020    3.1944248070
1      5.8685372750    7.9058039020    3.1944248070     13.6932536410    7.9058039020    3.1944248070
1      7.8247163660    0.0000000000    0.0000000000     11.7370745490    6.7763999910    0.0000000000
1      7.8247163660    0.0000000000    0.0000000000      9.7808954580    1.1294039110    3.1944248070
1      9.7808954580    1.1294039110    3.1944248070     13.6932536410    7.9058039020    3.1944248070
1     11.7370745490    6.7763999910    0.0000000000     13.6932536410    7.9058039020    3.1944248070
