 INFO
nunit      1    1    1
unit   cell
celltype   primcell
shape   parapipedal
 END_INFO
 DIM-GROUP
           3           9
 PRIMVEC
    2.4587792260    0.0000000000    0.0000000000
   -1.2293896130    2.1293662190    0.0000000000
    0.0000000000    0.0000000000    7.1052415690
 CONVVEC
    2.4587792260    0.0000000000    0.0000000000
   -1.2293896130    2.1293662190    0.0000000000
    0.0000000000    0.0000000000    7.1052415690
 PRIMCOORD
           4           1
  6      0.0000000000     0.0000000000     1.7763100600     0.0000000000    -0.0000000000     0.0000000000
  6      0.0000000000     0.0000000000     5.3289301790     0.0000000000     0.0000000000     0.0000000000
  6     -0.0000000010     1.4195767160     1.7763100600     0.0000000000    -0.0000000000     0.0000000000
  6      1.2293894980     0.7097883580     5.3289301790     0.0000000000     0.0000000000     0.0000000000
 CONVCOORD
           4           1
  6      0.0000000000     0.0000000000     1.7763100600
  6      0.0000000000     0.0000000000     5.3289301790
  6     -0.0000000010     1.4195767160     1.7763100600
  6      1.2293894980     0.7097883580     5.3289301790
 RECIP-PRIMVEC
    0.4067058927    0.2348116522   -0.0000000000

    0.0000000000    0.4696233044    0.0000000000

    0.0000000000   -0.0000000000    0.1407411684

 RECIP-CONVVEC
    0.4067058927    0.2348116522   -0.0000000000

    0.0000000000    0.4696233044    0.0000000000

    0.0000000000   -0.0000000000    0.1407411684

 WIGNER-SEITZ-PRIMCELL
           4
 -0.1229390E+01 -0.7097891E+00 -0.3552621E+01  -0.4999998E+00 -0.8660255E+00 -0.1566418E-15
 -0.0000000E+00 -0.1419577E+01 -0.3552621E+01  -0.4999998E+00 -0.8660255E+00 -0.1566418E-15
 -0.1528028E-14 -0.1419577E+01  0.3552621E+01  -0.4999998E+00 -0.8660255E+00 -0.1566418E-15
 -0.1229390E+01 -0.7097891E+00  0.3552621E+01  -0.4999998E+00 -0.8660255E+00 -0.1566418E-15
           4
 -0.1229390E+01  0.7097891E+00  0.3552621E+01  -0.1000000E+01  0.0000000E+00  0.0000000E+00
 -0.1229390E+01  0.7097891E+00 -0.3552621E+01  -0.1000000E+01  0.0000000E+00  0.0000000E+00
 -0.1229390E+01 -0.7097891E+00 -0.3552621E+01  -0.1000000E+01  0.0000000E+00  0.0000000E+00
 -0.1229390E+01 -0.7097891E+00  0.3552621E+01  -0.1000000E+01  0.0000000E+00  0.0000000E+00
           4
 -0.2292043E-14 -0.1419577E+01  0.3552621E+01   0.4999998E+00 -0.8660255E+00  0.1540993E-15
 -0.0000000E+00 -0.1419577E+01 -0.3552621E+01   0.4999998E+00 -0.8660255E+00  0.1540993E-15
  0.1229390E+01 -0.7097891E+00 -0.3552621E+01   0.4999998E+00 -0.8660255E+00  0.1540993E-15
  0.1229390E+01 -0.7097891E+00  0.3552621E+01   0.4999998E+00 -0.8660255E+00  0.1540993E-15
           6
 -0.1229390E+01 -0.7097891E+00 -0.3552621E+01  -0.5089222E-15  0.0000000E+00 -0.1000000E+01
 -0.1229390E+01  0.7097891E+00 -0.3552621E+01  -0.5089222E-15  0.0000000E+00 -0.1000000E+01
  0.0000000E+00  0.1419577E+01 -0.3552621E+01  -0.5089222E-15  0.0000000E+00 -0.1000000E+01
  0.1229390E+01  0.7097891E+00 -0.3552621E+01  -0.5089222E-15  0.0000000E+00 -0.1000000E+01
  0.1229390E+01 -0.7097891E+00 -0.3552621E+01  -0.5089222E-15  0.0000000E+00 -0.1000000E+01
 -0.0000000E+00 -0.1419577E+01 -0.3552621E+01  -0.5089222E-15  0.0000000E+00 -0.1000000E+01
           6
 -0.4584085E-14 -0.1419577E+01  0.3552621E+01  -0.5089222E-15 -0.0000000E+00  0.1000000E+01
  0.1229390E+01 -0.7097891E+00  0.3552621E+01  -0.5089222E-15 -0.0000000E+00  0.1000000E+01
  0.1229390E+01  0.7097891E+00  0.3552621E+01  -0.5089222E-15 -0.0000000E+00  0.1000000E+01
 -0.4584085E-14  0.1419577E+01  0.3552621E+01  -0.5089222E-15 -0.0000000E+00  0.1000000E+01
 -0.1229390E+01  0.7097891E+00  0.3552621E+01  -0.5089222E-15 -0.0000000E+00  0.1000000E+01
 -0.1229390E+01 -0.7097891E+00  0.3552621E+01  -0.5089222E-15 -0.0000000E+00  0.1000000E+01
           4
 -0.1229390E+01  0.7097891E+00  0.3552621E+01  -0.4999998E+00  0.8660255E+00  0.0000000E+00
 -0.0000000E+00  0.1419577E+01  0.3552621E+01  -0.4999998E+00  0.8660255E+00  0.0000000E+00
 -0.0000000E+00  0.1419577E+01 -0.3552621E+01  -0.4999998E+00  0.8660255E+00  0.0000000E+00
 -0.1229390E+01  0.7097891E+00 -0.3552621E+01  -0.4999998E+00  0.8660255E+00  0.0000000E+00
           4
  0.1229390E+01 -0.7097891E+00 -0.3552621E+01   0.1000000E+01 -0.0000000E+00 -0.0000000E+00
  0.1229390E+01  0.7097891E+00 -0.3552621E+01   0.1000000E+01 -0.0000000E+00 -0.0000000E+00
  0.1229390E+01  0.7097891E+00  0.3552621E+01   0.1000000E+01 -0.0000000E+00 -0.0000000E+00
  0.1229390E+01 -0.7097891E+00  0.3552621E+01   0.1000000E+01 -0.0000000E+00 -0.0000000E+00
           4
  0.1229390E+01  0.7097891E+00  0.3552621E+01   0.4999998E+00  0.8660255E+00  0.4402836E-16
  0.1229390E+01  0.7097891E+00 -0.3552621E+01   0.4999998E+00  0.8660255E+00  0.4402836E-16
 -0.0000000E+00  0.1419577E+01 -0.3552621E+01   0.4999998E+00  0.8660255E+00  0.4402836E-16
 -0.7640142E-15  0.1419577E+01  0.3552621E+01   0.4999998E+00  0.8660255E+00  0.4402836E-16
 WIGNER-SEITZ-PRIMCELL_END
 WIGNER-SEITZ-CONVCELL
           4
 -0.1229390E+01 -0.7097891E+00 -0.3552621E+01  -0.4999998E+00 -0.8660255E+00 -0.1566418E-15
 -0.0000000E+00 -0.1419577E+01 -0.3552621E+01  -0.4999998E+00 -0.8660255E+00 -0.1566418E-15
 -0.1528028E-14 -0.1419577E+01  0.3552621E+01  -0.4999998E+00 -0.8660255E+00 -0.1566418E-15
 -0.1229390E+01 -0.7097891E+00  0.3552621E+01  -0.4999998E+00 -0.8660255E+00 -0.1566418E-15
           4
 -0.1229390E+01  0.7097891E+00  0.3552621E+01  -0.1000000E+01  0.0000000E+00  0.0000000E+00
 -0.1229390E+01  0.7097891E+00 -0.3552621E+01  -0.1000000E+01  0.0000000E+00  0.0000000E+00
 -0.1229390E+01 -0.7097891E+00 -0.3552621E+01  -0.1000000E+01  0.0000000E+00  0.0000000E+00
 -0.1229390E+01 -0.7097891E+00  0.3552621E+01  -0.1000000E+01  0.0000000E+00  0.0000000E+00
           4
 -0.2292043E-14 -0.1419577E+01  0.3552621E+01   0.4999998E+00 -0.8660255E+00  0.1540993E-15
 -0.0000000E+00 -0.1419577E+01 -0.3552621E+01   0.4999998E+00 -0.8660255E+00  0.1540993E-15
  0.1229390E+01 -0.7097891E+00 -0.3552621E+01   0.4999998E+00 -0.8660255E+00  0.1540993E-15
  0.1229390E+01 -0.7097891E+00  0.3552621E+01   0.4999998E+00 -0.8660255E+00  0.1540993E-15
           6
 -0.1229390E+01 -0.7097891E+00 -0.3552621E+01  -0.5089222E-15  0.0000000E+00 -0.1000000E+01
 -0.1229390E+01  0.7097891E+00 -0.3552621E+01  -0.5089222E-15  0.0000000E+00 -0.1000000E+01
  0.0000000E+00  0.1419577E+01 -0.3552621E+01  -0.5089222E-15  0.0000000E+00 -0.1000000E+01
  0.1229390E+01  0.7097891E+00 -0.3552621E+01  -0.5089222E-15  0.0000000E+00 -0.1000000E+01
  0.1229390E+01 -0.7097891E+00 -0.3552621E+01  -0.5089222E-15  0.0000000E+00 -0.1000000E+01
 -0.0000000E+00 -0.1419577E+01 -0.3552621E+01  -0.5089222E-15  0.0000000E+00 -0.1000000E+01
           6
 -0.4584085E-14 -0.1419577E+01  0.3552621E+01  -0.5089222E-15 -0.0000000E+00  0.1000000E+01
  0.1229390E+01 -0.7097891E+00  0.3552621E+01  -0.5089222E-15 -0.0000000E+00  0.1000000E+01
  0.1229390E+01  0.7097891E+00  0.3552621E+01  -0.5089222E-15 -0.0000000E+00  0.1000000E+01
 -0.4584085E-14  0.1419577E+01  0.3552621E+01  -0.5089222E-15 -0.0000000E+00  0.1000000E+01
 -0.1229390E+01  0.7097891E+00  0.3552621E+01  -0.5089222E-15 -0.0000000E+00  0.1000000E+01
 -0.1229390E+01 -0.7097891E+00  0.3552621E+01  -0.5089222E-15 -0.0000000E+00  0.1000000E+01
           4
 -0.1229390E+01  0.7097891E+00  0.3552621E+01  -0.4999998E+00  0.8660255E+00  0.0000000E+00
 -0.0000000E+00  0.1419577E+01  0.3552621E+01  -0.4999998E+00  0.8660255E+00  0.0000000E+00
 -0.0000000E+00  0.1419577E+01 -0.3552621E+01  -0.4999998E+00  0.8660255E+00  0.0000000E+00
 -0.1229390E+01  0.7097891E+00 -0.3552621E+01  -0.4999998E+00  0.8660255E+00  0.0000000E+00
           4
  0.1229390E+01 -0.7097891E+00 -0.3552621E+01   0.1000000E+01 -0.0000000E+00 -0.0000000E+00
  0.1229390E+01  0.7097891E+00 -0.3552621E+01   0.1000000E+01 -0.0000000E+00 -0.0000000E+00
  0.1229390E+01  0.7097891E+00  0.3552621E+01   0.1000000E+01 -0.0000000E+00 -0.0000000E+00
  0.1229390E+01 -0.7097891E+00  0.3552621E+01   0.1000000E+01 -0.0000000E+00 -0.0000000E+00
           4
  0.1229390E+01  0.7097891E+00  0.3552621E+01   0.4999998E+00  0.8660255E+00  0.4402836E-16
  0.1229390E+01  0.7097891E+00 -0.3552621E+01   0.4999998E+00  0.8660255E+00  0.4402836E-16
 -0.0000000E+00  0.1419577E+01 -0.3552621E+01   0.4999998E+00  0.8660255E+00  0.4402836E-16
 -0.7640142E-15  0.1419577E+01  0.3552621E+01   0.4999998E+00  0.8660255E+00  0.4402836E-16
 WIGNER-SEITZ-CONVCELL_END
 BRILLOUIN-ZONE-PRIMCELL
           4
 -0.2711372E+00  0.0000000E+00 -0.7037058E-01  -0.8660255E+00 -0.4999998E+00 -0.0000000E+00
 -0.1355687E+00 -0.2348117E+00 -0.7037058E-01  -0.8660255E+00 -0.4999998E+00 -0.0000000E+00
 -0.1355687E+00 -0.2348117E+00  0.7037058E-01  -0.8660255E+00 -0.4999998E+00 -0.0000000E+00
 -0.2711372E+00 -0.3226629E-16  0.7037058E-01  -0.8660255E+00 -0.4999998E+00 -0.0000000E+00
           4
 -0.2711372E+00  0.3226629E-16  0.7037058E-01  -0.8660255E+00  0.4999998E+00 -0.1818361E-15
 -0.1355687E+00  0.2348117E+00  0.7037058E-01  -0.8660255E+00  0.4999998E+00 -0.1818361E-15
 -0.1355687E+00  0.2348117E+00 -0.7037058E-01  -0.8660255E+00  0.4999998E+00 -0.1818361E-15
 -0.2711372E+00  0.0000000E+00 -0.7037058E-01  -0.8660255E+00  0.4999998E+00 -0.1818361E-15
           4
 -0.1355687E+00 -0.2348117E+00 -0.7037058E-01  -0.4037569E-31 -0.1000000E+01 -0.1928831E-15
  0.1355687E+00 -0.2348117E+00 -0.7037058E-01  -0.4037569E-31 -0.1000000E+01 -0.1928831E-15
  0.1355687E+00 -0.2348117E+00  0.7037058E-01  -0.4037569E-31 -0.1000000E+01 -0.1928831E-15
 -0.1355687E+00 -0.2348117E+00  0.7037058E-01  -0.4037569E-31 -0.1000000E+01 -0.1928831E-15
           6
 -0.2711372E+00  0.0000000E+00 -0.7037058E-01   0.0000000E+00 -0.2724716E-16 -0.1000000E+01
 -0.1355687E+00  0.2348117E+00 -0.7037058E-01   0.0000000E+00 -0.2724716E-16 -0.1000000E+01
  0.1355687E+00  0.2348117E+00 -0.7037058E-01   0.0000000E+00 -0.2724716E-16 -0.1000000E+01
  0.2711372E+00 -0.0000000E+00 -0.7037058E-01   0.0000000E+00 -0.2724716E-16 -0.1000000E+01
  0.1355687E+00 -0.2348117E+00 -0.7037058E-01   0.0000000E+00 -0.2724716E-16 -0.1000000E+01
 -0.1355687E+00 -0.2348117E+00 -0.7037058E-01   0.0000000E+00 -0.2724716E-16 -0.1000000E+01
           6
 -0.1355687E+00 -0.2348117E+00  0.7037058E-01  -0.0000000E+00 -0.2724716E-16  0.1000000E+01
  0.1355687E+00 -0.2348117E+00  0.7037058E-01  -0.0000000E+00 -0.2724716E-16  0.1000000E+01
  0.2711372E+00  0.8066572E-17  0.7037058E-01  -0.0000000E+00 -0.2724716E-16  0.1000000E+01
  0.1355687E+00  0.2348117E+00  0.7037058E-01  -0.0000000E+00 -0.2724716E-16  0.1000000E+01
 -0.1355687E+00  0.2348117E+00  0.7037058E-01  -0.0000000E+00 -0.2724716E-16  0.1000000E+01
 -0.2711372E+00 -0.0000000E+00  0.7037058E-01  -0.0000000E+00 -0.2724716E-16  0.1000000E+01
           4
  0.1355687E+00  0.2348117E+00  0.7037058E-01  -0.1023672E-15  0.1000000E+01  0.3636719E-15
  0.1355687E+00  0.2348117E+00 -0.7037058E-01  -0.1023672E-15  0.1000000E+01  0.3636719E-15
 -0.1355687E+00  0.2348117E+00 -0.7037058E-01  -0.1023672E-15  0.1000000E+01  0.3636719E-15
 -0.1355687E+00  0.2348117E+00  0.7037058E-01  -0.1023672E-15  0.1000000E+01  0.3636719E-15
           4
  0.1355687E+00 -0.2348117E+00  0.7037058E-01   0.8660255E+00 -0.4999998E+00  0.1818361E-15
  0.1355687E+00 -0.2348117E+00 -0.7037058E-01   0.8660255E+00 -0.4999998E+00  0.1818361E-15
  0.2711372E+00  0.0000000E+00 -0.7037058E-01   0.8660255E+00 -0.4999998E+00  0.1818361E-15
  0.2711372E+00  0.0000000E+00  0.7037058E-01   0.8660255E+00 -0.4999998E+00  0.1818361E-15
           4
  0.2711372E+00  0.0000000E+00  0.7037058E-01   0.8660255E+00  0.4999998E+00  0.1818361E-15
  0.2711372E+00  0.0000000E+00 -0.7037058E-01   0.8660255E+00  0.4999998E+00  0.1818361E-15
  0.1355687E+00  0.2348117E+00 -0.7037058E-01   0.8660255E+00  0.4999998E+00  0.1818361E-15
  0.1355687E+00  0.2348117E+00  0.7037058E-01   0.8660255E+00  0.4999998E+00  0.1818361E-15
 BRILLOUIN-ZONE-PRIMCELL_END
 BRILLOUIN-ZONE-CONVCELL
           4
 -0.2711372E+00  0.0000000E+00 -0.7037058E-01  -0.8660255E+00 -0.4999998E+00 -0.0000000E+00
 -0.1355687E+00 -0.2348117E+00 -0.7037058E-01  -0.8660255E+00 -0.4999998E+00 -0.0000000E+00
 -0.1355687E+00 -0.2348117E+00  0.7037058E-01  -0.8660255E+00 -0.4999998E+00 -0.0000000E+00
 -0.2711372E+00 -0.3226629E-16  0.7037058E-01  -0.8660255E+00 -0.4999998E+00 -0.0000000E+00
           4
 -0.2711372E+00  0.3226629E-16  0.7037058E-01  -0.8660255E+00  0.4999998E+00 -0.1818361E-15
 -0.1355687E+00  0.2348117E+00  0.7037058E-01  -0.8660255E+00  0.4999998E+00 -0.1818361E-15
 -0.1355687E+00  0.2348117E+00 -0.7037058E-01  -0.8660255E+00  0.4999998E+00 -0.1818361E-15
 -0.2711372E+00  0.0000000E+00 -0.7037058E-01  -0.8660255E+00  0.4999998E+00 -0.1818361E-15
           4
 -0.1355687E+00 -0.2348117E+00 -0.7037058E-01  -0.4037569E-31 -0.1000000E+01 -0.1928831E-15
  0.1355687E+00 -0.2348117E+00 -0.7037058E-01  -0.4037569E-31 -0.1000000E+01 -0.1928831E-15
  0.1355687E+00 -0.2348117E+00  0.7037058E-01  -0.4037569E-31 -0.1000000E+01 -0.1928831E-15
 -0.1355687E+00 -0.2348117E+00  0.7037058E-01  -0.4037569E-31 -0.1000000E+01 -0.1928831E-15
           6
 -0.2711372E+00  0.0000000E+00 -0.7037058E-01   0.0000000E+00 -0.2724716E-16 -0.1000000E+01
 -0.1355687E+00  0.2348117E+00 -0.7037058E-01   0.0000000E+00 -0.2724716E-16 -0.1000000E+01
  0.1355687E+00  0.2348117E+00 -0.7037058E-01   0.0000000E+00 -0.2724716E-16 -0.1000000E+01
  0.2711372E+00 -0.0000000E+00 -0.7037058E-01   0.0000000E+00 -0.2724716E-16 -0.1000000E+01
  0.1355687E+00 -0.2348117E+00 -0.7037058E-01   0.0000000E+00 -0.2724716E-16 -0.1000000E+01
 -0.1355687E+00 -0.2348117E+00 -0.7037058E-01   0.0000000E+00 -0.2724716E-16 -0.1000000E+01
           6
 -0.1355687E+00 -0.2348117E+00  0.7037058E-01  -0.0000000E+00 -0.2724716E-16  0.1000000E+01
  0.1355687E+00 -0.2348117E+00  0.7037058E-01  -0.0000000E+00 -0.2724716E-16  0.1000000E+01
  0.2711372E+00  0.8066572E-17  0.7037058E-01  -0.0000000E+00 -0.2724716E-16  0.1000000E+01
  0.1355687E+00  0.2348117E+00  0.7037058E-01  -0.0000000E+00 -0.2724716E-16  0.1000000E+01
 -0.1355687E+00  0.2348117E+00  0.7037058E-01  -0.0000000E+00 -0.2724716E-16  0.1000000E+01
 -0.2711372E+00 -0.0000000E+00  0.7037058E-01  -0.0000000E+00 -0.2724716E-16  0.1000000E+01
           4
  0.1355687E+00  0.2348117E+00  0.7037058E-01  -0.1023672E-15  0.1000000E+01  0.3636719E-15
  0.1355687E+00  0.2348117E+00 -0.7037058E-01  -0.1023672E-15  0.1000000E+01  0.3636719E-15
 -0.1355687E+00  0.2348117E+00 -0.7037058E-01  -0.1023672E-15  0.1000000E+01  0.3636719E-15
 -0.1355687E+00  0.2348117E+00  0.7037058E-01  -0.1023672E-15  0.1000000E+01  0.3636719E-15
           4
  0.1355687E+00 -0.2348117E+00  0.7037058E-01   0.8660255E+00 -0.4999998E+00  0.1818361E-15
  0.1355687E+00 -0.2348117E+00 -0.7037058E-01   0.8660255E+00 -0.4999998E+00  0.1818361E-15
  0.2711372E+00  0.0000000E+00 -0.7037058E-01   0.8660255E+00 -0.4999998E+00  0.1818361E-15
  0.2711372E+00  0.0000000E+00  0.7037058E-01   0.8660255E+00 -0.4999998E+00  0.1818361E-15
           4
  0.2711372E+00  0.0000000E+00  0.7037058E-01   0.8660255E+00  0.4999998E+00  0.1818361E-15
  0.2711372E+00  0.0000000E+00 -0.7037058E-01   0.8660255E+00  0.4999998E+00  0.1818361E-15
  0.1355687E+00  0.2348117E+00 -0.7037058E-01   0.8660255E+00  0.4999998E+00  0.1818361E-15
  0.1355687E+00  0.2348117E+00  0.7037058E-01   0.8660255E+00  0.4999998E+00  0.1818361E-15
 BRILLOUIN-ZONE-CONVCELL_END
 ATOMS
    6    0.0000000000    0.0000000000    1.7763100600    0.0000000000   -0.0000000000    0.0000000000
    6    0.0000000000    0.0000000000    5.3289301790    0.0000000000    0.0000000000    0.0000000000
    6   -0.0000000010    1.4195767160    1.7763100600    0.0000000000   -0.0000000000    0.0000000000
    6    1.2293894980    0.7097883580    5.3289301790    0.0000000000    0.0000000000    0.0000000000
    6   -1.2293896130    2.1293662190    1.7763100600    0.0000000000   -0.0000000000    0.0000000000
    6   -1.2293896130    2.1293662190    5.3289301790    0.0000000000    0.0000000000    0.0000000000
    6    2.4587792260    0.0000000000    1.7763100600    0.0000000000   -0.0000000000    0.0000000000
    6    2.4587792260    0.0000000000    5.3289301790    0.0000000000    0.0000000000    0.0000000000
    6    1.2293896130    2.1293662190    1.7763100600    0.0000000000   -0.0000000000    0.0000000000
    6    1.2293896130    2.1293662190    5.3289301790    0.0000000000    0.0000000000    0.0000000000
 FRAMES
1      0.0000000000    0.0000000000    0.0000000000      2.4587792260    0.0000000000    0.0000000000
1      0.0000000000    0.0000000000    0.0000000000     -1.2293896130    2.1293662190    0.0000000000
1      0.0000000000    0.0000000000    0.0000000000      0.0000000000    0.0000000000    7.1052415690
1      0.0000000000    0.0000000000    7.1052415690      2.4587792260    0.0000000000    7.1052415690
1      0.0000000000    0.0000000000    7.1052415690     -1.2293896130    2.1293662190    7.1052415690
1     -1.2293896130    2.1293662190    0.0000000000      1.2293896130    2.1293662190    0.0000000000
1     -1.2293896130    2.1293662190    0.0000000000     -1.2293896130    2.1293662190    7.1052415690
1     -1.2293896130    2.1293662190    7.1052415690      1.2293896130    2.1293662190    7.1052415690
1      2.4587792260    0.0000000000    0.0000000000      1.2293896130    2.1293662190    0.0000000000
1      2.4587792260    0.0000000000    0.0000000000      2.4587792260    0.0000000000    7.1052415690
1      2.4587792260    0.0000000000    7.1052415690      1.2293896130    2.1293662190    7.1052415690
1      1.2293896130    2.1293662190    0.0000000000      1.2293896130    2.1293662190    7.1052415690
