 INFO
nunit      1    1    1
unit   cell
celltype   primcell
shape   parapipedal
 END_INFO
 DIM-GROUP
           3           7
 PRIMVEC
    0.0000000000    2.4649188420    2.4649188420
    2.4649188420    0.0000000000    2.4649188420
    2.4649188420    2.4649188420    0.0000000000
 CONVVEC
    0.0000000000    2.4649188420    2.4649188420
    2.4649188420    0.0000000000    2.4649188420
    2.4649188420    2.4649188420    0.0000000000
 PRIMCOORD
           2           1
 25      3.6973770020     3.6973770020     3.6973770020     0.0000000000     0.0000000000     0.0000000000
 16      0.0000000000     0.0000000000     0.0000000000     0.0000000000     0.0000000000    -0.0000000000
 CONVCOORD
           2           1
 25      3.6973770020     3.6973770020     3.6973770020
 16      0.0000000000     0.0000000000     0.0000000000
 RECIP-PRIMVEC
   -0.2028464351    0.2028464351    0.2028464351

    0.2028464351   -0.2028464351    0.2028464351

    0.2028464351    0.2028464351   -0.2028464351

 RECIP-CONVVEC
   -0.2028464351    0.2028464351    0.2028464351

    0.2028464351   -0.2028464351    0.2028464351

    0.2028464351    0.2028464351   -0.2028464351

 WIGNER-SEITZ-PRIMCELL
           4
 -0.1232459E+01 -0.1232459E+01 -0.1232459E+01  -0.0000000E+00 -0.7071068E+00 -0.7071068E+00
  0.0000000E+00  0.0000000E+00 -0.2464919E+01  -0.0000000E+00 -0.7071068E+00 -0.7071068E+00
  0.1232459E+01 -0.1232459E+01 -0.1232459E+01  -0.0000000E+00 -0.7071068E+00 -0.7071068E+00
 -0.0000000E+00 -0.2464919E+01 -0.0000000E+00  -0.0000000E+00 -0.7071068E+00 -0.7071068E+00
           4
  0.2464919E+01  0.0000000E+00  0.0000000E+00   0.7071068E+00  0.0000000E+00 -0.7071068E+00
  0.1232459E+01 -0.1232459E+01 -0.1232459E+01   0.7071068E+00  0.0000000E+00 -0.7071068E+00
  0.0000000E+00  0.0000000E+00 -0.2464919E+01   0.7071068E+00  0.0000000E+00 -0.7071068E+00
  0.1232459E+01  0.1232459E+01 -0.1232459E+01   0.7071068E+00  0.0000000E+00 -0.7071068E+00
           4
 -0.1232459E+01  0.1232459E+01 -0.1232459E+01  -0.7071068E+00 -0.0000000E+00 -0.7071068E+00
  0.0000000E+00  0.0000000E+00 -0.2464919E+01  -0.7071068E+00 -0.0000000E+00 -0.7071068E+00
 -0.1232459E+01 -0.1232459E+01 -0.1232459E+01  -0.7071068E+00 -0.0000000E+00 -0.7071068E+00
 -0.2464919E+01 -0.0000000E+00 -0.0000000E+00  -0.7071068E+00 -0.0000000E+00 -0.7071068E+00
           4
  0.1232459E+01  0.1232459E+01 -0.1232459E+01  -0.0000000E+00  0.7071068E+00 -0.7071068E+00
  0.0000000E+00  0.0000000E+00 -0.2464919E+01  -0.0000000E+00  0.7071068E+00 -0.7071068E+00
 -0.1232459E+01  0.1232459E+01 -0.1232459E+01  -0.0000000E+00  0.7071068E+00 -0.7071068E+00
  0.0000000E+00  0.2464919E+01  0.0000000E+00  -0.0000000E+00  0.7071068E+00 -0.7071068E+00
           4
 -0.0000000E+00 -0.2464919E+01 -0.0000000E+00   0.7071068E+00 -0.7071068E+00 -0.0000000E+00
  0.1232459E+01 -0.1232459E+01 -0.1232459E+01   0.7071068E+00 -0.7071068E+00 -0.0000000E+00
  0.2464919E+01  0.0000000E+00  0.0000000E+00   0.7071068E+00 -0.7071068E+00 -0.0000000E+00
  0.1232459E+01 -0.1232459E+01  0.1232459E+01   0.7071068E+00 -0.7071068E+00 -0.0000000E+00
           4
 -0.1232459E+01 -0.1232459E+01  0.1232459E+01  -0.7071068E+00 -0.7071068E+00  0.0000000E+00
 -0.2464919E+01 -0.0000000E+00 -0.0000000E+00  -0.7071068E+00 -0.7071068E+00  0.0000000E+00
 -0.1232459E+01 -0.1232459E+01 -0.1232459E+01  -0.7071068E+00 -0.7071068E+00  0.0000000E+00
 -0.0000000E+00 -0.2464919E+01 -0.0000000E+00  -0.7071068E+00 -0.7071068E+00  0.0000000E+00
           4
 -0.0000000E+00 -0.0000000E+00  0.2464919E+01   0.0000000E+00 -0.7071068E+00  0.7071068E+00
 -0.1232459E+01 -0.1232459E+01  0.1232459E+01   0.0000000E+00 -0.7071068E+00  0.7071068E+00
 -0.0000000E+00 -0.2464919E+01 -0.0000000E+00   0.0000000E+00 -0.7071068E+00  0.7071068E+00
  0.1232459E+01 -0.1232459E+01  0.1232459E+01   0.0000000E+00 -0.7071068E+00  0.7071068E+00
           4
  0.2464919E+01  0.0000000E+00  0.0000000E+00   0.7071068E+00  0.7071068E+00 -0.0000000E+00
  0.1232459E+01  0.1232459E+01 -0.1232459E+01   0.7071068E+00  0.7071068E+00 -0.0000000E+00
  0.0000000E+00  0.2464919E+01  0.0000000E+00   0.7071068E+00  0.7071068E+00 -0.0000000E+00
  0.1232459E+01  0.1232459E+01  0.1232459E+01   0.7071068E+00  0.7071068E+00 -0.0000000E+00
           4
  0.0000000E+00  0.0000000E+00  0.2464919E+01   0.7071068E+00  0.0000000E+00  0.7071068E+00
  0.1232459E+01 -0.1232459E+01  0.1232459E+01   0.7071068E+00  0.0000000E+00  0.7071068E+00
  0.2464919E+01  0.0000000E+00  0.0000000E+00   0.7071068E+00  0.0000000E+00  0.7071068E+00
  0.1232459E+01  0.1232459E+01  0.1232459E+01   0.7071068E+00  0.0000000E+00  0.7071068E+00
           4
 -0.1232459E+01  0.1232459E+01  0.1232459E+01  -0.7071068E+00  0.7071068E+00  0.0000000E+00
 -0.0000000E+00  0.2464919E+01 -0.0000000E+00  -0.7071068E+00  0.7071068E+00  0.0000000E+00
 -0.1232459E+01  0.1232459E+01 -0.1232459E+01  -0.7071068E+00  0.7071068E+00  0.0000000E+00
 -0.2464919E+01 -0.0000000E+00 -0.0000000E+00  -0.7071068E+00  0.7071068E+00  0.0000000E+00
           4
 -0.1232459E+01  0.1232459E+01  0.1232459E+01  -0.7071068E+00 -0.0000000E+00  0.7071068E+00
 -0.2464919E+01 -0.0000000E+00 -0.0000000E+00  -0.7071068E+00 -0.0000000E+00  0.7071068E+00
 -0.1232459E+01 -0.1232459E+01  0.1232459E+01  -0.7071068E+00 -0.0000000E+00  0.7071068E+00
 -0.0000000E+00 -0.0000000E+00  0.2464919E+01  -0.7071068E+00 -0.0000000E+00  0.7071068E+00
           4
 -0.0000000E+00 -0.0000000E+00  0.2464919E+01   0.0000000E+00  0.7071068E+00  0.7071068E+00
  0.1232459E+01  0.1232459E+01  0.1232459E+01   0.0000000E+00  0.7071068E+00  0.7071068E+00
 -0.0000000E+00  0.2464919E+01 -0.0000000E+00   0.0000000E+00  0.7071068E+00  0.7071068E+00
 -0.1232459E+01  0.1232459E+01  0.1232459E+01   0.0000000E+00  0.7071068E+00  0.7071068E+00
 WIGNER-SEITZ-PRIMCELL_END
 WIGNER-SEITZ-CONVCELL
           4
 -0.1232459E+01 -0.1232459E+01 -0.1232459E+01  -0.0000000E+00 -0.7071068E+00 -0.7071068E+00
  0.0000000E+00  0.0000000E+00 -0.2464919E+01  -0.0000000E+00 -0.7071068E+00 -0.7071068E+00
  0.1232459E+01 -0.1232459E+01 -0.1232459E+01  -0.0000000E+00 -0.7071068E+00 -0.7071068E+00
 -0.0000000E+00 -0.2464919E+01 -0.0000000E+00  -0.0000000E+00 -0.7071068E+00 -0.7071068E+00
           4
  0.2464919E+01  0.0000000E+00  0.0000000E+00   0.7071068E+00  0.0000000E+00 -0.7071068E+00
  0.1232459E+01 -0.1232459E+01 -0.1232459E+01   0.7071068E+00  0.0000000E+00 -0.7071068E+00
  0.0000000E+00  0.0000000E+00 -0.2464919E+01   0.7071068E+00  0.0000000E+00 -0.7071068E+00
  0.1232459E+01  0.1232459E+01 -0.1232459E+01   0.7071068E+00  0.0000000E+00 -0.7071068E+00
           4
 -0.1232459E+01  0.1232459E+01 -0.1232459E+01  -0.7071068E+00 -0.0000000E+00 -0.7071068E+00
  0.0000000E+00  0.0000000E+00 -0.2464919E+01  -0.7071068E+00 -0.0000000E+00 -0.7071068E+00
 -0.1232459E+01 -0.1232459E+01 -0.1232459E+01  -0.7071068E+00 -0.0000000E+00 -0.7071068E+00
 -0.2464919E+01 -0.0000000E+00 -0.0000000E+00  -0.7071068E+00 -0.0000000E+00 -0.7071068E+00
           4
  0.1232459E+01  0.1232459E+01 -0.1232459E+01  -0.0000000E+00  0.7071068E+00 -0.7071068E+00
  0.0000000E+00  0.0000000E+00 -0.2464919E+01  -0.0000000E+00  0.7071068E+00 -0.7071068E+00
 -0.1232459E+01  0.1232459E+01 -0.1232459E+01  -0.0000000E+00  0.7071068E+00 -0.7071068E+00
  0.0000000E+00  0.2464919E+01  0.0000000E+00  -0.0000000E+00  0.7071068E+00 -0.7071068E+00
           4
 -0.0000000E+00 -0.2464919E+01 -0.0000000E+00   0.7071068E+00 -0.7071068E+00 -0.0000000E+00
  0.1232459E+01 -0.1232459E+01 -0.1232459E+01   0.7071068E+00 -0.7071068E+00 -0.0000000E+00
  0.2464919E+01  0.0000000E+00  0.0000000E+00   0.7071068E+00 -0.7071068E+00 -0.0000000E+00
  0.1232459E+01 -0.1232459E+01  0.1232459E+01   0.7071068E+00 -0.7071068E+00 -0.0000000E+00
           4
 -0.1232459E+01 -0.1232459E+01  0.1232459E+01  -0.7071068E+00 -0.7071068E+00  0.0000000E+00
 -0.2464919E+01 -0.0000000E+00 -0.0000000E+00  -0.7071068E+00 -0.7071068E+00  0.0000000E+00
 -0.1232459E+01 -0.1232459E+01 -0.1232459E+01  -0.7071068E+00 -0.7071068E+00  0.0000000E+00
 -0.0000000E+00 -0.2464919E+01 -0.0000000E+00  -0.7071068E+00 -0.7071068E+00  0.0000000E+00
           4
 -0.0000000E+00 -0.0000000E+00  0.2464919E+01   0.0000000E+00 -0.7071068E+00  0.7071068E+00
 -0.1232459E+01 -0.1232459E+01  0.1232459E+01   0.0000000E+00 -0.7071068E+00  0.7071068E+00
 -0.0000000E+00 -0.2464919E+01 -0.0000000E+00   0.0000000E+00 -0.7071068E+00  0.7071068E+00
  0.1232459E+01 -0.1232459E+01  0.1232459E+01   0.0000000E+00 -0.7071068E+00  0.7071068E+00
           4
  0.2464919E+01  0.0000000E+00  0.0000000E+00   0.7071068E+00  0.7071068E+00 -0.0000000E+00
  0.1232459E+01  0.1232459E+01 -0.1232459E+01   0.7071068E+00  0.7071068E+00 -0.0000000E+00
  0.0000000E+00  0.2464919E+01  0.0000000E+00   0.7071068E+00  0.7071068E+00 -0.0000000E+00
  0.1232459E+01  0.1232459E+01  0.1232459E+01   0.7071068E+00  0.7071068E+00 -0.0000000E+00
           4
  0.0000000E+00  0.0000000E+00  0.2464919E+01   0.7071068E+00  0.0000000E+00  0.7071068E+00
  0.1232459E+01 -0.1232459E+01  0.1232459E+01   0.7071068E+00  0.0000000E+00  0.7071068E+00
  0.2464919E+01  0.0000000E+00  0.0000000E+00   0.7071068E+00  0.0000000E+00  0.7071068E+00
  0.1232459E+01  0.1232459E+01  0.1232459E+01   0.7071068E+00  0.0000000E+00  0.7071068E+00
           4
 -0.1232459E+01  0.1232459E+01  0.1232459E+01  -0.7071068E+00  0.7071068E+00  0.0000000E+00
 -0.0000000E+00  0.2464919E+01 -0.0000000E+00  -0.7071068E+00  0.7071068E+00  0.0000000E+00
 -0.1232459E+01  0.1232459E+01 -0.1232459E+01  -0.7071068E+00  0.7071068E+00  0.0000000E+00
 -0.2464919E+01 -0.0000000E+00 -0.0000000E+00  -0.7071068E+00  0.7071068E+00  0.0000000E+00
           4
 -0.1232459E+01  0.1232459E+01  0.1232459E+01  -0.7071068E+00 -0.0000000E+00  0.7071068E+00
 -0.2464919E+01 -0.0000000E+00 -0.0000000E+00  -0.7071068E+00 -0.0000000E+00  0.7071068E+00
 -0.1232459E+01 -0.1232459E+01  0.1232459E+01  -0.7071068E+00 -0.0000000E+00  0.7071068E+00
 -0.0000000E+00 -0.0000000E+00  0.2464919E+01  -0.7071068E+00 -0.0000000E+00  0.7071068E+00
           4
 -0.0000000E+00 -0.0000000E+00  0.2464919E+01   0.0000000E+00  0.7071068E+00  0.7071068E+00
  0.1232459E+01  0.1232459E+01  0.1232459E+01   0.0000000E+00  0.7071068E+00  0.7071068E+00
 -0.0000000E+00  0.2464919E+01 -0.0000000E+00   0.0000000E+00  0.7071068E+00  0.7071068E+00
 -0.1232459E+01  0.1232459E+01  0.1232459E+01   0.0000000E+00  0.7071068E+00  0.7071068E+00
 WIGNER-SEITZ-CONVCELL_END
 BRILLOUIN-ZONE-PRIMCELL
           6
 -0.2028464E+00 -0.2597994E-16 -0.1014232E+00  -0.5773503E+00 -0.5773503E+00 -0.5773503E+00
 -0.1014232E+00  0.2597994E-16 -0.2028464E+00  -0.5773503E+00 -0.5773503E+00 -0.5773503E+00
 -0.1298997E-16 -0.1014232E+00 -0.2028464E+00  -0.5773503E+00 -0.5773503E+00 -0.5773503E+00
  0.1298997E-16 -0.2028464E+00 -0.1014232E+00  -0.5773503E+00 -0.5773503E+00 -0.5773503E+00
 -0.1014232E+00 -0.2028464E+00 -0.1298997E-16  -0.5773503E+00 -0.5773503E+00 -0.5773503E+00
 -0.2028464E+00 -0.1014232E+00  0.2597994E-16  -0.5773503E+00 -0.5773503E+00 -0.5773503E+00
           4
 -0.1014232E+00  0.2597994E-16 -0.2028464E+00   0.1686380E-15  0.0000000E+00 -0.1000000E+01
  0.1298997E-16  0.1014232E+00 -0.2028464E+00   0.1686380E-15  0.0000000E+00 -0.1000000E+01
  0.1014232E+00 -0.1298997E-16 -0.2028464E+00   0.1686380E-15  0.0000000E+00 -0.1000000E+01
 -0.1298997E-16 -0.1014232E+00 -0.2028464E+00   0.1686380E-15  0.0000000E+00 -0.1000000E+01
           6
  0.1298997E-16 -0.2028464E+00 -0.1014232E+00   0.5773503E+00 -0.5773503E+00 -0.5773503E+00
 -0.1298997E-16 -0.1014232E+00 -0.2028464E+00   0.5773503E+00 -0.5773503E+00 -0.5773503E+00
  0.1014232E+00 -0.1298997E-16 -0.2028464E+00   0.5773503E+00 -0.5773503E+00 -0.5773503E+00
  0.2028464E+00  0.1298997E-16 -0.1014232E+00   0.5773503E+00 -0.5773503E+00 -0.5773503E+00
  0.2028464E+00 -0.1014232E+00 -0.1298997E-16   0.5773503E+00 -0.5773503E+00 -0.5773503E+00
  0.1014232E+00 -0.2028464E+00  0.2597994E-16   0.5773503E+00 -0.5773503E+00 -0.5773503E+00
           6
 -0.2028464E+00  0.1014232E+00 -0.2597994E-16  -0.5773503E+00  0.5773503E+00 -0.5773503E+00
 -0.1014232E+00  0.2028464E+00  0.1298997E-16  -0.5773503E+00  0.5773503E+00 -0.5773503E+00
 -0.2597994E-16  0.2028464E+00 -0.1014232E+00  -0.5773503E+00  0.5773503E+00 -0.5773503E+00
  0.1298997E-16  0.1014232E+00 -0.2028464E+00  -0.5773503E+00  0.5773503E+00 -0.5773503E+00
 -0.1014232E+00  0.2597994E-16 -0.2028464E+00  -0.5773503E+00  0.5773503E+00 -0.5773503E+00
 -0.2028464E+00 -0.2597994E-16 -0.1014232E+00  -0.5773503E+00  0.5773503E+00 -0.5773503E+00
           4
 -0.1014232E+00 -0.2028464E+00 -0.1298997E-16  -0.0000000E+00 -0.1000000E+01 -0.1686380E-15
  0.1298997E-16 -0.2028464E+00 -0.1014232E+00  -0.0000000E+00 -0.1000000E+01 -0.1686380E-15
  0.1014232E+00 -0.2028464E+00  0.2597994E-16  -0.0000000E+00 -0.1000000E+01 -0.1686380E-15
 -0.2597994E-16 -0.2028464E+00  0.1014232E+00  -0.0000000E+00 -0.1000000E+01 -0.1686380E-15
           6
 -0.2028464E+00  0.1298997E-16  0.1014232E+00  -0.5773503E+00 -0.5773503E+00  0.5773503E+00
 -0.2028464E+00 -0.1014232E+00  0.2597994E-16  -0.5773503E+00 -0.5773503E+00  0.5773503E+00
 -0.1014232E+00 -0.2028464E+00 -0.1298997E-16  -0.5773503E+00 -0.5773503E+00  0.5773503E+00
 -0.2597994E-16 -0.2028464E+00  0.1014232E+00  -0.5773503E+00 -0.5773503E+00  0.5773503E+00
  0.2597994E-16 -0.1014232E+00  0.2028464E+00  -0.5773503E+00 -0.5773503E+00  0.5773503E+00
 -0.1014232E+00 -0.2597994E-16  0.2028464E+00  -0.5773503E+00 -0.5773503E+00  0.5773503E+00
           4
 -0.2028464E+00  0.1298997E-16  0.1014232E+00  -0.1000000E+01  0.0000000E+00  0.0000000E+00
 -0.2028464E+00  0.1014232E+00 -0.2597994E-16  -0.1000000E+01  0.0000000E+00  0.0000000E+00
 -0.2028464E+00 -0.2597994E-16 -0.1014232E+00  -0.1000000E+01  0.0000000E+00  0.0000000E+00
 -0.2028464E+00 -0.1014232E+00  0.2597994E-16  -0.1000000E+01  0.0000000E+00  0.0000000E+00
           6
  0.1014232E+00  0.2028464E+00 -0.1298997E-16   0.5773503E+00  0.5773503E+00 -0.5773503E+00
  0.2028464E+00  0.1014232E+00  0.2597994E-16   0.5773503E+00  0.5773503E+00 -0.5773503E+00
  0.2028464E+00  0.1298997E-16 -0.1014232E+00   0.5773503E+00  0.5773503E+00 -0.5773503E+00
  0.1014232E+00 -0.1298997E-16 -0.2028464E+00   0.5773503E+00  0.5773503E+00 -0.5773503E+00
  0.1298997E-16  0.1014232E+00 -0.2028464E+00   0.5773503E+00  0.5773503E+00 -0.5773503E+00
 -0.2597994E-16  0.2028464E+00 -0.1014232E+00   0.5773503E+00  0.5773503E+00 -0.5773503E+00
           6
 -0.2597994E-16 -0.2028464E+00  0.1014232E+00   0.5773503E+00 -0.5773503E+00  0.5773503E+00
  0.1014232E+00 -0.2028464E+00  0.2597994E-16   0.5773503E+00 -0.5773503E+00  0.5773503E+00
  0.2028464E+00 -0.1014232E+00 -0.1298997E-16   0.5773503E+00 -0.5773503E+00  0.5773503E+00
  0.2028464E+00 -0.2597994E-16  0.1014232E+00   0.5773503E+00 -0.5773503E+00  0.5773503E+00
  0.1014232E+00  0.2597994E-16  0.2028464E+00   0.5773503E+00 -0.5773503E+00  0.5773503E+00
  0.2597994E-16 -0.1014232E+00  0.2028464E+00   0.5773503E+00 -0.5773503E+00  0.5773503E+00
           4
  0.2028464E+00 -0.1014232E+00 -0.1298997E-16   0.1000000E+01 -0.0000000E+00 -0.0000000E+00
  0.2028464E+00  0.1298997E-16 -0.1014232E+00   0.1000000E+01 -0.0000000E+00 -0.0000000E+00
  0.2028464E+00  0.1014232E+00  0.2597994E-16   0.1000000E+01 -0.0000000E+00 -0.0000000E+00
  0.2028464E+00 -0.2597994E-16  0.1014232E+00   0.1000000E+01 -0.0000000E+00 -0.0000000E+00
           6
 -0.1014232E+00 -0.2597994E-16  0.2028464E+00  -0.5773503E+00  0.5773503E+00  0.5773503E+00
 -0.1298997E-16  0.1014232E+00  0.2028464E+00  -0.5773503E+00  0.5773503E+00  0.5773503E+00
  0.1298997E-16  0.2028464E+00  0.1014232E+00  -0.5773503E+00  0.5773503E+00  0.5773503E+00
 -0.1014232E+00  0.2028464E+00  0.1298997E-16  -0.5773503E+00  0.5773503E+00  0.5773503E+00
 -0.2028464E+00  0.1014232E+00 -0.2597994E-16  -0.5773503E+00  0.5773503E+00  0.5773503E+00
 -0.2028464E+00  0.1298997E-16  0.1014232E+00  -0.5773503E+00  0.5773503E+00  0.5773503E+00
           4
  0.1298997E-16  0.2028464E+00  0.1014232E+00   0.0000000E+00  0.1000000E+01  0.0000000E+00
  0.1014232E+00  0.2028464E+00 -0.1298997E-16   0.0000000E+00  0.1000000E+01  0.0000000E+00
 -0.2597994E-16  0.2028464E+00 -0.1014232E+00   0.0000000E+00  0.1000000E+01  0.0000000E+00
 -0.1014232E+00  0.2028464E+00  0.1298997E-16   0.0000000E+00  0.1000000E+01  0.0000000E+00
           4
  0.2597994E-16 -0.1014232E+00  0.2028464E+00  -0.1686380E-15  0.1686380E-15  0.1000000E+01
  0.1014232E+00  0.2597994E-16  0.2028464E+00  -0.1686380E-15  0.1686380E-15  0.1000000E+01
 -0.1298997E-16  0.1014232E+00  0.2028464E+00  -0.1686380E-15  0.1686380E-15  0.1000000E+01
 -0.1014232E+00 -0.2597994E-16  0.2028464E+00  -0.1686380E-15  0.1686380E-15  0.1000000E+01
           6
 -0.1298997E-16  0.1014232E+00  0.2028464E+00   0.5773503E+00  0.5773503E+00  0.5773503E+00
  0.1014232E+00  0.2597994E-16  0.2028464E+00   0.5773503E+00  0.5773503E+00  0.5773503E+00
  0.2028464E+00 -0.2597994E-16  0.1014232E+00   0.5773503E+00  0.5773503E+00  0.5773503E+00
  0.2028464E+00  0.1014232E+00  0.2597994E-16   0.5773503E+00  0.5773503E+00  0.5773503E+00
  0.1014232E+00  0.2028464E+00 -0.1298997E-16   0.5773503E+00  0.5773503E+00  0.5773503E+00
  0.1298997E-16  0.2028464E+00  0.1014232E+00   0.5773503E+00  0.5773503E+00  0.5773503E+00
 BRILLOUIN-ZONE-PRIMCELL_END
 BRILLOUIN-ZONE-CONVCELL
           6
 -0.2028464E+00 -0.2597994E-16 -0.1014232E+00  -0.5773503E+00 -0.5773503E+00 -0.5773503E+00
 -0.1014232E+00  0.2597994E-16 -0.2028464E+00  -0.5773503E+00 -0.5773503E+00 -0.5773503E+00
 -0.1298997E-16 -0.1014232E+00 -0.2028464E+00  -0.5773503E+00 -0.5773503E+00 -0.5773503E+00
  0.1298997E-16 -0.2028464E+00 -0.1014232E+00  -0.5773503E+00 -0.5773503E+00 -0.5773503E+00
 -0.1014232E+00 -0.2028464E+00 -0.1298997E-16  -0.5773503E+00 -0.5773503E+00 -0.5773503E+00
 -0.2028464E+00 -0.1014232E+00  0.2597994E-16  -0.5773503E+00 -0.5773503E+00 -0.5773503E+00
           4
 -0.1014232E+00  0.2597994E-16 -0.2028464E+00   0.1686380E-15  0.0000000E+00 -0.1000000E+01
  0.1298997E-16  0.1014232E+00 -0.2028464E+00   0.1686380E-15  0.0000000E+00 -0.1000000E+01
  0.1014232E+00 -0.1298997E-16 -0.2028464E+00   0.1686380E-15  0.0000000E+00 -0.1000000E+01
 -0.1298997E-16 -0.1014232E+00 -0.2028464E+00   0.1686380E-15  0.0000000E+00 -0.1000000E+01
           6
  0.1298997E-16 -0.2028464E+00 -0.1014232E+00   0.5773503E+00 -0.5773503E+00 -0.5773503E+00
 -0.1298997E-16 -0.1014232E+00 -0.2028464E+00   0.5773503E+00 -0.5773503E+00 -0.5773503E+00
  0.1014232E+00 -0.1298997E-16 -0.2028464E+00   0.5773503E+00 -0.5773503E+00 -0.5773503E+00
  0.2028464E+00  0.1298997E-16 -0.1014232E+00   0.5773503E+00 -0.5773503E+00 -0.5773503E+00
  0.2028464E+00 -0.1014232E+00 -0.1298997E-16   0.5773503E+00 -0.5773503E+00 -0.5773503E+00
  0.1014232E+00 -0.2028464E+00  0.2597994E-16   0.5773503E+00 -0.5773503E+00 -0.5773503E+00
           6
 -0.2028464E+00  0.1014232E+00 -0.2597994E-16  -0.5773503E+00  0.5773503E+00 -0.5773503E+00
 -0.1014232E+00  0.2028464E+00  0.1298997E-16  -0.5773503E+00  0.5773503E+00 -0.5773503E+00
 -0.2597994E-16  0.2028464E+00 -0.1014232E+00  -0.5773503E+00  0.5773503E+00 -0.5773503E+00
  0.1298997E-16  0.1014232E+00 -0.2028464E+00  -0.5773503E+00  0.5773503E+00 -0.5773503E+00
 -0.1014232E+00  0.2597994E-16 -0.2028464E+00  -0.5773503E+00  0.5773503E+00 -0.5773503E+00
 -0.2028464E+00 -0.2597994E-16 -0.1014232E+00  -0.5773503E+00  0.5773503E+00 -0.5773503E+00
           4
 -0.1014232E+00 -0.2028464E+00 -0.1298997E-16  -0.0000000E+00 -0.1000000E+01 -0.1686380E-15
  0.1298997E-16 -0.2028464E+00 -0.1014232E+00  -0.0000000E+00 -0.1000000E+01 -0.1686380E-15
  0.1014232E+00 -0.2028464E+00  0.2597994E-16  -0.0000000E+00 -0.1000000E+01 -0.1686380E-15
 -0.2597994E-16 -0.2028464E+00  0.1014232E+00  -0.0000000E+00 -0.1000000E+01 -0.1686380E-15
           6
 -0.2028464E+00  0.1298997E-16  0.1014232E+00  -0.5773503E+00 -0.5773503E+00  0.5773503E+00
 -0.2028464E+00 -0.1014232E+00  0.2597994E-16  -0.5773503E+00 -0.5773503E+00  0.5773503E+00
 -0.1014232E+00 -0.2028464E+00 -0.1298997E-16  -0.5773503E+00 -0.5773503E+00  0.5773503E+00
 -0.2597994E-16 -0.2028464E+00  0.1014232E+00  -0.5773503E+00 -0.5773503E+00  0.5773503E+00
  0.2597994E-16 -0.1014232E+00  0.2028464E+00  -0.5773503E+00 -0.5773503E+00  0.5773503E+00
 -0.1014232E+00 -0.2597994E-16  0.2028464E+00  -0.5773503E+00 -0.5773503E+00  0.5773503E+00
           4
 -0.2028464E+00  0.1298997E-16  0.1014232E+00  -0.1000000E+01  0.0000000E+00  0.0000000E+00
 -0.2028464E+00  0.1014232E+00 -0.2597994E-16  -0.1000000E+01  0.0000000E+00  0.0000000E+00
 -0.2028464E+00 -0.2597994E-16 -0.1014232E+00  -0.1000000E+01  0.0000000E+00  0.0000000E+00
 -0.2028464E+00 -0.1014232E+00  0.2597994E-16  -0.1000000E+01  0.0000000E+00  0.0000000E+00
           6
  0.1014232E+00  0.2028464E+00 -0.1298997E-16   0.5773503E+00  0.5773503E+00 -0.5773503E+00
  0.2028464E+00  0.1014232E+00  0.2597994E-16   0.5773503E+00  0.5773503E+00 -0.5773503E+00
  0.2028464E+00  0.1298997E-16 -0.1014232E+00   0.5773503E+00  0.5773503E+00 -0.5773503E+00
  0.1014232E+00 -0.1298997E-16 -0.2028464E+00   0.5773503E+00  0.5773503E+00 -0.5773503E+00
  0.1298997E-16  0.1014232E+00 -0.2028464E+00   0.5773503E+00  0.5773503E+00 -0.5773503E+00
 -0.2597994E-16  0.2028464E+00 -0.1014232E+00   0.5773503E+00  0.5773503E+00 -0.5773503E+00
           6
 -0.2597994E-16 -0.2028464E+00  0.1014232E+00   0.5773503E+00 -0.5773503E+00  0.5773503E+00
  0.1014232E+00 -0.2028464E+00  0.2597994E-16   0.5773503E+00 -0.5773503E+00  0.5773503E+00
  0.2028464E+00 -0.1014232E+00 -0.1298997E-16   0.5773503E+00 -0.5773503E+00  0.5773503E+00
  0.2028464E+00 -0.2597994E-16  0.1014232E+00   0.5773503E+00 -0.5773503E+00  0.5773503E+00
  0.1014232E+00  0.2597994E-16  0.2028464E+00   0.5773503E+00 -0.5773503E+00  0.5773503E+00
  0.2597994E-16 -0.1014232E+00  0.2028464E+00   0.5773503E+00 -0.5773503E+00  0.5773503E+00
           4
  0.2028464E+00 -0.1014232E+00 -0.1298997E-16   0.1000000E+01 -0.0000000E+00 -0.0000000E+00
  0.2028464E+00  0.1298997E-16 -0.1014232E+00   0.1000000E+01 -0.0000000E+00 -0.0000000E+00
  0.2028464E+00  0.1014232E+00  0.2597994E-16   0.1000000E+01 -0.0000000E+00 -0.0000000E+00
  0.2028464E+00 -0.2597994E-16  0.1014232E+00   0.1000000E+01 -0.0000000E+00 -0.0000000E+00
           6
 -0.1014232E+00 -0.2597994E-16  0.2028464E+00  -0.5773503E+00  0.5773503E+00  0.5773503E+00
 -0.1298997E-16  0.1014232E+00  0.2028464E+00  -0.5773503E+00  0.5773503E+00  0.5773503E+00
  0.1298997E-16  0.2028464E+00  0.1014232E+00  -0.5773503E+00  0.5773503E+00  0.5773503E+00
 -0.1014232E+00  0.2028464E+00  0.1298997E-16  -0.5773503E+00  0.5773503E+00  0.5773503E+00
 -0.2028464E+00  0.1014232E+00 -0.2597994E-16  -0.5773503E+00  0.5773503E+00  0.5773503E+00
 -0.2028464E+00  0.1298997E-16  0.1014232E+00  -0.5773503E+00  0.5773503E+00  0.5773503E+00
           4
  0.1298997E-16  0.2028464E+00  0.1014232E+00   0.0000000E+00  0.1000000E+01  0.0000000E+00
  0.1014232E+00  0.2028464E+00 -0.1298997E-16   0.0000000E+00  0.1000000E+01  0.0000000E+00
 -0.2597994E-16  0.2028464E+00 -0.1014232E+00   0.0000000E+00  0.1000000E+01  0.0000000E+00
 -0.1014232E+00  0.2028464E+00  0.1298997E-16   0.0000000E+00  0.1000000E+01  0.0000000E+00
           4
  0.2597994E-16 -0.1014232E+00  0.2028464E+00  -0.1686380E-15  0.1686380E-15  0.1000000E+01
  0.1014232E+00  0.2597994E-16  0.2028464E+00  -0.1686380E-15  0.1686380E-15  0.1000000E+01
 -0.1298997E-16  0.1014232E+00  0.2028464E+00  -0.1686380E-15  0.1686380E-15  0.1000000E+01
 -0.1014232E+00 -0.2597994E-16  0.2028464E+00  -0.1686380E-15  0.1686380E-15  0.1000000E+01
           6
 -0.1298997E-16  0.1014232E+00  0.2028464E+00   0.5773503E+00  0.5773503E+00  0.5773503E+00
  0.1014232E+00  0.2597994E-16  0.2028464E+00   0.5773503E+00  0.5773503E+00  0.5773503E+00
  0.2028464E+00 -0.2597994E-16  0.1014232E+00   0.5773503E+00  0.5773503E+00  0.5773503E+00
  0.2028464E+00  0.1014232E+00  0.2597994E-16   0.5773503E+00  0.5773503E+00  0.5773503E+00
  0.1014232E+00  0.2028464E+00 -0.1298997E-16   0.5773503E+00  0.5773503E+00  0.5773503E+00
  0.1298997E-16  0.2028464E+00  0.1014232E+00   0.5773503E+00  0.5773503E+00  0.5773503E+00
 BRILLOUIN-ZONE-CONVCELL_END
 ATOMS
   25    3.6973770020    3.6973770020    3.6973770020    0.0000000000    0.0000000000    0.0000000000
   16    0.0000000000    0.0000000000    0.0000000000    0.0000000000    0.0000000000   -0.0000000000
   16    2.4649188420    2.4649188420    0.0000000000    0.0000000000    0.0000000000   -0.0000000000
   16    2.4649188420    0.0000000000    2.4649188420    0.0000000000    0.0000000000   -0.0000000000
   16    4.9298376840    2.4649188420    2.4649188420    0.0000000000    0.0000000000   -0.0000000000
   16    0.0000000000    2.4649188420    2.4649188420    0.0000000000    0.0000000000   -0.0000000000
   16    2.4649188420    4.9298376840    2.4649188420    0.0000000000    0.0000000000   -0.0000000000
   16    2.4649188420    2.4649188420    4.9298376840    0.0000000000    0.0000000000   -0.0000000000
   16    4.9298376840    4.9298376840    4.9298376840    0.0000000000    0.0000000000   -0.0000000000
 FRAMES
1      0.0000000000    0.0000000000    0.0000000000      0.0000000000    2.4649188420    2.4649188420
1      0.0000000000    0.0000000000    0.0000000000      2.4649188420    0.0000000000    2.4649188420
1      0.0000000000    0.0000000000    0.0000000000      2.4649188420    2.4649188420    0.0000000000
1      2.4649188420    2.4649188420    0.0000000000      2.4649188420    4.9298376840    2.4649188420
1      2.4649188420    2.4649188420    0.0000000000      4.9298376840    2.4649188420    2.4649188420
1      2.4649188420    0.0000000000    2.4649188420      2.4649188420    2.4649188420    4.9298376840
1      2.4649188420    0.0000000000    2.4649188420      4.9298376840    2.4649188420    2.4649188420
1      4.9298376840    2.4649188420    2.4649188420      4.9298376840    4.9298376840    4.9298376840
1      0.0000000000    2.4649188420    2.4649188420      2.4649188420    2.4649188420    4.9298376840
1      0.0000000000    2.4649188420    2.4649188420      2.4649188420    4.9298376840    2.4649188420
1      2.4649188420    4.9298376840    2.4649188420      4.9298376840    4.9298376840    4.9298376840
1      2.4649188420    2.4649188420    4.9298376840      4.9298376840    4.9298376840    4.9298376840
