 INFO
nunit      1    1    1
unit   cell
celltype   primcell
shape   parapipedal
 END_INFO
 DIM-GROUP
           3           1
 PRIMVEC
    7.8247163660    0.0000000000    0.0000000000
    1.9561790920    3.3882039080    0.0000000000
    1.9561790920    1.1294039110    3.1944248070
 CONVVEC
    7.8247163660    0.0000000000    0.0000000000
    1.9561790920    3.3882039080    0.0000000000
    1.9561790920    1.1294039110    3.1944248070
 PRIMCOORD
           4           1
 25      5.8622754950     3.3918211100     2.3997051200     0.0000285600    -0.0000164900     0.0000297900
 25      9.7746353760     3.3918201300     2.3997046890     0.0000287500    -0.0000166000     0.0000297300
 16      0.0062613940    -0.0036150230    -0.0038864590    -0.0000286400     0.0000165400    -0.0000297600
 16      3.9186186510    -0.0036144880    -0.0038861390    -0.0000286700     0.0000165500    -0.0000297600
 CONVCOORD
           4           1
 25      5.8622754950     3.3918211100     2.3997051200
 25      9.7746353760     3.3918201300     2.3997046890
 16      0.0062613940    -0.0036150230    -0.0038864590
 16      3.9186186510    -0.0036144880    -0.0038861390
 RECIP-PRIMVEC
    0.1278001595   -0.0737854057   -0.0521741735

    0.0000000000    0.2951416229   -0.1043487085

    0.0000000000    0.0000000000    0.3130454027

 RECIP-CONVVEC
    0.1278001595   -0.0737854057   -0.0521741735

    0.0000000000    0.2951416229   -0.1043487085

    0.0000000000    0.0000000000    0.3130454027

 WIGNER-SEITZ-PRIMCELL
           6
  0.2934270E+01  0.5647012E+00 -0.1996515E+01  -0.1499746E-09  0.5773504E+00 -0.8164965E+00
  0.1956180E+01 -0.1129400E+01 -0.3194426E+01  -0.1499746E-09  0.5773504E+00 -0.8164965E+00
  0.1956178E+01 -0.1129401E+01 -0.3194426E+01  -0.1499746E-09  0.5773504E+00 -0.8164965E+00
 -0.2934270E+01  0.1694099E+01 -0.1197910E+01  -0.1499746E-09  0.5773504E+00 -0.8164965E+00
 -0.1956180E+01  0.3388200E+01  0.8246777E-06  -0.1499746E-09  0.5773504E+00 -0.8164965E+00
 -0.1956178E+01  0.3388201E+01  0.1541996E-05  -0.1499746E-09  0.5773504E+00 -0.8164965E+00
           4
 -0.2934267E+01  0.1694105E+01  0.1197910E+01  -0.8660253E+00  0.5000003E+00 -0.3934878E-15
 -0.1956180E+01  0.3388200E+01  0.8246777E-06  -0.8660253E+00  0.5000003E+00 -0.3934878E-15
 -0.2934270E+01  0.1694099E+01 -0.1197910E+01  -0.8660253E+00  0.5000003E+00 -0.3934878E-15
 -0.3912357E+01  0.3854189E-05 -0.8246777E-06  -0.8660253E+00  0.5000003E+00 -0.3934878E-15
           6
 -0.9780913E+00  0.2823503E+01  0.1996515E+01  -0.5773500E+00  0.6666672E+00  0.4714040E+00
 -0.1956178E+01  0.3388201E+01  0.1541996E-05  -0.5773500E+00  0.6666672E+00  0.4714040E+00
 -0.1956180E+01  0.3388200E+01  0.8246777E-06  -0.5773500E+00  0.6666672E+00  0.4714040E+00
 -0.2934267E+01  0.1694105E+01  0.1197910E+01  -0.5773500E+00  0.6666672E+00  0.4714040E+00
 -0.1956180E+01  0.1129407E+01  0.3194423E+01  -0.5773500E+00  0.6666672E+00  0.4714040E+00
 -0.1956178E+01  0.1129408E+01  0.3194424E+01  -0.5773500E+00  0.6666672E+00  0.4714040E+00
           6
 -0.3912357E+01 -0.2839749E-05  0.1541996E-05  -0.5000001E+00 -0.2886761E+00 -0.8164962E+00
 -0.3912357E+01  0.3854189E-05 -0.8246777E-06  -0.5000001E+00 -0.2886761E+00 -0.8164962E+00
 -0.2934270E+01  0.1694099E+01 -0.1197910E+01  -0.5000001E+00 -0.2886761E+00 -0.8164962E+00
  0.1956178E+01 -0.1129401E+01 -0.3194426E+01  -0.5000001E+00 -0.2886761E+00 -0.8164962E+00
  0.1956178E+01 -0.1129408E+01 -0.3194424E+01  -0.5000001E+00 -0.2886761E+00 -0.8164962E+00
  0.9780913E+00 -0.2823503E+01 -0.1996515E+01  -0.5000001E+00 -0.2886761E+00 -0.8164962E+00
           4
  0.3912357E+01  0.2839749E-05 -0.1541996E-05   0.4999997E+00  0.8660256E+00 -0.1671719E-15
  0.2934270E+01  0.5647012E+00 -0.1996515E+01   0.4999997E+00  0.8660256E+00 -0.1671719E-15
 -0.1956178E+01  0.3388201E+01  0.1541996E-05   0.4999997E+00  0.8660256E+00 -0.1671719E-15
 -0.9780913E+00  0.2823503E+01  0.1996515E+01   0.4999997E+00  0.8660256E+00 -0.1671719E-15
           6
  0.2934267E+01 -0.1694105E+01 -0.1197910E+01   0.8660255E+00 -0.1666672E+00 -0.4714042E+00
  0.1956180E+01 -0.1129407E+01 -0.3194423E+01   0.8660255E+00 -0.1666672E+00 -0.4714042E+00
  0.1956180E+01 -0.1129400E+01 -0.3194426E+01   0.8660255E+00 -0.1666672E+00 -0.4714042E+00
  0.2934270E+01  0.5647012E+00 -0.1996515E+01   0.8660255E+00 -0.1666672E+00 -0.4714042E+00
  0.3912357E+01  0.2839749E-05 -0.1541996E-05   0.8660255E+00 -0.1666672E+00 -0.4714042E+00
  0.3912357E+01 -0.3854189E-05  0.8246777E-06   0.8660255E+00 -0.1666672E+00 -0.4714042E+00
           6
 -0.1956180E+01  0.1129400E+01  0.3194426E+01  -0.8660255E+00  0.1666672E+00  0.4714042E+00
 -0.1956180E+01  0.1129407E+01  0.3194423E+01  -0.8660255E+00  0.1666672E+00  0.4714042E+00
 -0.2934267E+01  0.1694105E+01  0.1197910E+01  -0.8660255E+00  0.1666672E+00  0.4714042E+00
 -0.3912357E+01  0.3854189E-05 -0.8246777E-06  -0.8660255E+00  0.1666672E+00  0.4714042E+00
 -0.3912357E+01 -0.2839749E-05  0.1541996E-05  -0.8660255E+00  0.1666672E+00  0.4714042E+00
 -0.2934270E+01 -0.5647012E+00  0.1996515E+01  -0.8660255E+00  0.1666672E+00  0.4714042E+00
           6
  0.2934270E+01 -0.1694099E+01  0.1197910E+01   0.5000001E+00  0.2886761E+00  0.8164962E+00
  0.3912357E+01 -0.3854189E-05  0.8246777E-06   0.5000001E+00  0.2886761E+00  0.8164962E+00
  0.3912357E+01  0.2839749E-05 -0.1541996E-05   0.5000001E+00  0.2886761E+00  0.8164962E+00
 -0.9780913E+00  0.2823503E+01  0.1996515E+01   0.5000001E+00  0.2886761E+00  0.8164962E+00
 -0.1956178E+01  0.1129408E+01  0.3194424E+01   0.5000001E+00  0.2886761E+00  0.8164962E+00
 -0.1956178E+01  0.1129401E+01  0.3194426E+01   0.5000001E+00  0.2886761E+00  0.8164962E+00
           6
  0.1956180E+01 -0.3388200E+01 -0.8246777E-06   0.5773500E+00 -0.6666672E+00 -0.4714040E+00
  0.1956178E+01 -0.3388201E+01 -0.1541996E-05   0.5773500E+00 -0.6666672E+00 -0.4714040E+00
  0.9780913E+00 -0.2823503E+01 -0.1996515E+01   0.5773500E+00 -0.6666672E+00 -0.4714040E+00
  0.1956178E+01 -0.1129408E+01 -0.3194424E+01   0.5773500E+00 -0.6666672E+00 -0.4714040E+00
  0.1956180E+01 -0.1129407E+01 -0.3194423E+01   0.5773500E+00 -0.6666672E+00 -0.4714040E+00
  0.2934267E+01 -0.1694105E+01 -0.1197910E+01   0.5773500E+00 -0.6666672E+00 -0.4714040E+00
           4
 -0.2934270E+01 -0.5647012E+00  0.1996515E+01  -0.4999997E+00 -0.8660256E+00  0.2625964E-15
 -0.3912357E+01 -0.2839749E-05  0.1541996E-05  -0.4999997E+00 -0.8660256E+00  0.2625964E-15
  0.9780913E+00 -0.2823503E+01 -0.1996515E+01  -0.4999997E+00 -0.8660256E+00  0.2625964E-15
  0.1956178E+01 -0.3388201E+01 -0.1541996E-05  -0.4999997E+00 -0.8660256E+00  0.2625964E-15
           4
  0.1956180E+01 -0.3388200E+01 -0.8246777E-06   0.8660253E+00 -0.5000003E+00  0.1895126E-15
  0.2934267E+01 -0.1694105E+01 -0.1197910E+01   0.8660253E+00 -0.5000003E+00  0.1895126E-15
  0.3912357E+01 -0.3854189E-05  0.8246777E-06   0.8660253E+00 -0.5000003E+00  0.1895126E-15
  0.2934270E+01 -0.1694099E+01  0.1197910E+01   0.8660253E+00 -0.5000003E+00  0.1895126E-15
           6
 -0.1956178E+01  0.1129401E+01  0.3194426E+01   0.4806390E-09 -0.5773504E+00  0.8164965E+00
 -0.1956180E+01  0.1129400E+01  0.3194426E+01   0.4806390E-09 -0.5773504E+00  0.8164965E+00
 -0.2934270E+01 -0.5647012E+00  0.1996515E+01   0.4806390E-09 -0.5773504E+00  0.8164965E+00
  0.1956178E+01 -0.3388201E+01 -0.1541996E-05   0.4806390E-09 -0.5773504E+00  0.8164965E+00
  0.1956180E+01 -0.3388200E+01 -0.8246777E-06   0.4806390E-09 -0.5773504E+00  0.8164965E+00
  0.2934270E+01 -0.1694099E+01  0.1197910E+01   0.4806390E-09 -0.5773504E+00  0.8164965E+00
 WIGNER-SEITZ-PRIMCELL_END
 WIGNER-SEITZ-CONVCELL
           6
  0.2934270E+01  0.5647012E+00 -0.1996515E+01  -0.1499746E-09  0.5773504E+00 -0.8164965E+00
  0.1956180E+01 -0.1129400E+01 -0.3194426E+01  -0.1499746E-09  0.5773504E+00 -0.8164965E+00
  0.1956178E+01 -0.1129401E+01 -0.3194426E+01  -0.1499746E-09  0.5773504E+00 -0.8164965E+00
 -0.2934270E+01  0.1694099E+01 -0.1197910E+01  -0.1499746E-09  0.5773504E+00 -0.8164965E+00
 -0.1956180E+01  0.3388200E+01  0.8246777E-06  -0.1499746E-09  0.5773504E+00 -0.8164965E+00
 -0.1956178E+01  0.3388201E+01  0.1541996E-05  -0.1499746E-09  0.5773504E+00 -0.8164965E+00
           4
 -0.2934267E+01  0.1694105E+01  0.1197910E+01  -0.8660253E+00  0.5000003E+00 -0.3934878E-15
 -0.1956180E+01  0.3388200E+01  0.8246777E-06  -0.8660253E+00  0.5000003E+00 -0.3934878E-15
 -0.2934270E+01  0.1694099E+01 -0.1197910E+01  -0.8660253E+00  0.5000003E+00 -0.3934878E-15
 -0.3912357E+01  0.3854189E-05 -0.8246777E-06  -0.8660253E+00  0.5000003E+00 -0.3934878E-15
           6
 -0.9780913E+00  0.2823503E+01  0.1996515E+01  -0.5773500E+00  0.6666672E+00  0.4714040E+00
 -0.1956178E+01  0.3388201E+01  0.1541996E-05  -0.5773500E+00  0.6666672E+00  0.4714040E+00
 -0.1956180E+01  0.3388200E+01  0.8246777E-06  -0.5773500E+00  0.6666672E+00  0.4714040E+00
 -0.2934267E+01  0.1694105E+01  0.1197910E+01  -0.5773500E+00  0.6666672E+00  0.4714040E+00
 -0.1956180E+01  0.1129407E+01  0.3194423E+01  -0.5773500E+00  0.6666672E+00  0.4714040E+00
 -0.1956178E+01  0.1129408E+01  0.3194424E+01  -0.5773500E+00  0.6666672E+00  0.4714040E+00
           6
 -0.3912357E+01 -0.2839749E-05  0.1541996E-05  -0.5000001E+00 -0.2886761E+00 -0.8164962E+00
 -0.3912357E+01  0.3854189E-05 -0.8246777E-06  -0.5000001E+00 -0.2886761E+00 -0.8164962E+00
 -0.2934270E+01  0.1694099E+01 -0.1197910E+01  -0.5000001E+00 -0.2886761E+00 -0.8164962E+00
  0.1956178E+01 -0.1129401E+01 -0.3194426E+01  -0.5000001E+00 -0.2886761E+00 -0.8164962E+00
  0.1956178E+01 -0.1129408E+01 -0.3194424E+01  -0.5000001E+00 -0.2886761E+00 -0.8164962E+00
  0.9780913E+00 -0.2823503E+01 -0.1996515E+01  -0.5000001E+00 -0.2886761E+00 -0.8164962E+00
           4
  0.3912357E+01  0.2839749E-05 -0.1541996E-05   0.4999997E+00  0.8660256E+00 -0.1671719E-15
  0.2934270E+01  0.5647012E+00 -0.1996515E+01   0.4999997E+00  0.8660256E+00 -0.1671719E-15
 -0.1956178E+01  0.3388201E+01  0.1541996E-05   0.4999997E+00  0.8660256E+00 -0.1671719E-15
 -0.9780913E+00  0.2823503E+01  0.1996515E+01   0.4999997E+00  0.8660256E+00 -0.1671719E-15
           6
  0.2934267E+01 -0.1694105E+01 -0.1197910E+01   0.8660255E+00 -0.1666672E+00 -0.4714042E+00
  0.1956180E+01 -0.1129407E+01 -0.3194423E+01   0.8660255E+00 -0.1666672E+00 -0.4714042E+00
  0.1956180E+01 -0.1129400E+01 -0.3194426E+01   0.8660255E+00 -0.1666672E+00 -0.4714042E+00
  0.2934270E+01  0.5647012E+00 -0.1996515E+01   0.8660255E+00 -0.1666672E+00 -0.4714042E+00
  0.3912357E+01  0.2839749E-05 -0.1541996E-05   0.8660255E+00 -0.1666672E+00 -0.4714042E+00
  0.3912357E+01 -0.3854189E-05  0.8246777E-06   0.8660255E+00 -0.1666672E+00 -0.4714042E+00
           6
 -0.1956180E+01  0.1129400E+01  0.3194426E+01  -0.8660255E+00  0.1666672E+00  0.4714042E+00
 -0.1956180E+01  0.1129407E+01  0.3194423E+01  -0.8660255E+00  0.1666672E+00  0.4714042E+00
 -0.2934267E+01  0.1694105E+01  0.1197910E+01  -0.8660255E+00  0.1666672E+00  0.4714042E+00
 -0.3912357E+01  0.3854189E-05 -0.8246777E-06  -0.8660255E+00  0.1666672E+00  0.4714042E+00
 -0.3912357E+01 -0.2839749E-05  0.1541996E-05  -0.8660255E+00  0.1666672E+00  0.4714042E+00
 -0.2934270E+01 -0.5647012E+00  0.1996515E+01  -0.8660255E+00  0.1666672E+00  0.4714042E+00
           6
  0.2934270E+01 -0.1694099E+01  0.1197910E+01   0.5000001E+00  0.2886761E+00  0.8164962E+00
  0.3912357E+01 -0.3854189E-05  0.8246777E-06   0.5000001E+00  0.2886761E+00  0.8164962E+00
  0.3912357E+01  0.2839749E-05 -0.1541996E-05   0.5000001E+00  0.2886761E+00  0.8164962E+00
 -0.9780913E+00  0.2823503E+01  0.1996515E+01   0.5000001E+00  0.2886761E+00  0.8164962E+00
 -0.1956178E+01  0.1129408E+01  0.3194424E+01   0.5000001E+00  0.2886761E+00  0.8164962E+00
 -0.1956178E+01  0.1129401E+01  0.3194426E+01   0.5000001E+00  0.2886761E+00  0.8164962E+00
           6
  0.1956180E+01 -0.3388200E+01 -0.8246777E-06   0.5773500E+00 -0.6666672E+00 -0.4714040E+00
  0.1956178E+01 -0.3388201E+01 -0.1541996E-05   0.5773500E+00 -0.6666672E+00 -0.4714040E+00
  0.9780913E+00 -0.2823503E+01 -0.1996515E+01   0.5773500E+00 -0.6666672E+00 -0.4714040E+00
  0.1956178E+01 -0.1129408E+01 -0.3194424E+01   0.5773500E+00 -0.6666672E+00 -0.4714040E+00
  0.1956180E+01 -0.1129407E+01 -0.3194423E+01   0.5773500E+00 -0.6666672E+00 -0.4714040E+00
  0.2934267E+01 -0.1694105E+01 -0.1197910E+01   0.5773500E+00 -0.6666672E+00 -0.4714040E+00
           4
 -0.2934270E+01 -0.5647012E+00  0.1996515E+01  -0.4999997E+00 -0.8660256E+00  0.2625964E-15
 -0.3912357E+01 -0.2839749E-05  0.1541996E-05  -0.4999997E+00 -0.8660256E+00  0.2625964E-15
  0.9780913E+00 -0.2823503E+01 -0.1996515E+01  -0.4999997E+00 -0.8660256E+00  0.2625964E-15
  0.1956178E+01 -0.3388201E+01 -0.1541996E-05  -0.4999997E+00 -0.8660256E+00  0.2625964E-15
           4
  0.1956180E+01 -0.3388200E+01 -0.8246777E-06   0.8660253E+00 -0.5000003E+00  0.1895126E-15
  0.2934267E+01 -0.1694105E+01 -0.1197910E+01   0.8660253E+00 -0.5000003E+00  0.1895126E-15
  0.3912357E+01 -0.3854189E-05  0.8246777E-06   0.8660253E+00 -0.5000003E+00  0.1895126E-15
  0.2934270E+01 -0.1694099E+01  0.1197910E+01   0.8660253E+00 -0.5000003E+00  0.1895126E-15
           6
 -0.1956178E+01  0.1129401E+01  0.3194426E+01   0.4806390E-09 -0.5773504E+00  0.8164965E+00
 -0.1956180E+01  0.1129400E+01  0.3194426E+01   0.4806390E-09 -0.5773504E+00  0.8164965E+00
 -0.2934270E+01 -0.5647012E+00  0.1996515E+01   0.4806390E-09 -0.5773504E+00  0.8164965E+00
  0.1956178E+01 -0.3388201E+01 -0.1541996E-05   0.4806390E-09 -0.5773504E+00  0.8164965E+00
  0.1956180E+01 -0.3388200E+01 -0.8246777E-06   0.4806390E-09 -0.5773504E+00  0.8164965E+00
  0.2934270E+01 -0.1694099E+01  0.1197910E+01   0.4806390E-09 -0.5773504E+00  0.8164965E+00
 WIGNER-SEITZ-CONVCELL_END
 BRILLOUIN-ZONE-PRIMCELL
           6
  0.1597496E-01  0.1752405E+00  0.2608701E-01  -0.8164967E+00  0.4714043E+00  0.3333333E+00
 -0.6390022E-01  0.1291244E+00 -0.1043485E+00  -0.8164967E+00  0.4714043E+00  0.3333333E+00
 -0.1437751E+00 -0.9223092E-02 -0.1043485E+00  -0.8164967E+00  0.4714043E+00  0.3333333E+00
 -0.1437751E+00 -0.1014551E+00  0.2608717E-01  -0.8164967E+00  0.4714043E+00  0.3333333E+00
 -0.6389994E-01 -0.5533898E-01  0.1565227E+00  -0.8164967E+00  0.4714043E+00  0.3333333E+00
  0.1597496E-01  0.8300850E-01  0.1565227E+00  -0.8164967E+00  0.4714043E+00  0.3333333E+00
           4
 -0.1597496E-01 -0.8300850E-01  0.1565227E+00  -0.3924536E-15 -0.1962268E-15  0.1000000E+01
  0.6389994E-01  0.5533898E-01  0.1565227E+00  -0.3924536E-15 -0.1962268E-15  0.1000000E+01
  0.1597496E-01  0.8300850E-01  0.1565227E+00  -0.3924536E-15 -0.1962268E-15  0.1000000E+01
 -0.6389994E-01 -0.5533898E-01  0.1565227E+00  -0.3924536E-15 -0.1962268E-15  0.1000000E+01
           6
  0.1118252E+00  0.4611573E-01  0.1304355E+00   0.4264016E+00  0.7385488E+00  0.5222330E+00
  0.1118252E+00  0.1383477E+00 -0.1807566E-06   0.4264016E+00  0.7385488E+00  0.5222330E+00
  0.6390022E-01  0.1660172E+00 -0.1807566E-06   0.4264016E+00  0.7385488E+00  0.5222330E+00
  0.1597496E-01  0.1752405E+00  0.2608701E-01   0.4264016E+00  0.7385488E+00  0.5222330E+00
  0.1597496E-01  0.8300850E-01  0.1565227E+00   0.4264016E+00  0.7385488E+00  0.5222330E+00
  0.6389994E-01  0.5533898E-01  0.1565227E+00   0.4264016E+00  0.7385488E+00  0.5222330E+00
           6
 -0.1597496E-01 -0.8300850E-01  0.1565227E+00  -0.4264014E+00 -0.7385483E+00  0.5222339E+00
 -0.6389994E-01 -0.5533898E-01  0.1565227E+00  -0.4264014E+00 -0.7385483E+00  0.5222339E+00
 -0.1437751E+00 -0.1014551E+00  0.2608717E-01  -0.4264014E+00 -0.7385483E+00  0.5222339E+00
 -0.1118252E+00 -0.1383477E+00  0.1807566E-06  -0.4264014E+00 -0.7385483E+00  0.5222339E+00
 -0.6390022E-01 -0.1660172E+00  0.1807566E-06  -0.4264014E+00 -0.7385483E+00  0.5222339E+00
  0.1597496E-01 -0.1199011E+00  0.1304357E+00  -0.4264014E+00 -0.7385483E+00  0.5222339E+00
           4
  0.6390022E-01  0.1660172E+00 -0.1807566E-06   0.4433456E-15  0.9428087E+00 -0.3333344E+00
 -0.1597496E-01  0.1199011E+00 -0.1304357E+00   0.4433456E-15  0.9428087E+00 -0.3333344E+00
 -0.6390022E-01  0.1291244E+00 -0.1043485E+00   0.4433456E-15  0.9428087E+00 -0.3333344E+00
  0.1597496E-01  0.1752405E+00  0.2608701E-01   0.4433456E-15  0.9428087E+00 -0.3333344E+00
           6
 -0.1597496E-01  0.1199011E+00 -0.1304357E+00  -0.4264011E+00  0.2461826E+00 -0.8703885E+00
  0.1597496E-01  0.8300850E-01 -0.1565227E+00  -0.4264011E+00  0.2461826E+00 -0.8703885E+00
 -0.6389994E-01 -0.5533898E-01 -0.1565227E+00  -0.4264011E+00  0.2461826E+00 -0.8703885E+00
 -0.1118252E+00 -0.4611573E-01 -0.1304355E+00  -0.4264011E+00  0.2461826E+00 -0.8703885E+00
 -0.1437751E+00 -0.9223092E-02 -0.1043485E+00  -0.4264011E+00  0.2461826E+00 -0.8703885E+00
 -0.6390022E-01  0.1291244E+00 -0.1043485E+00  -0.4264011E+00  0.2461826E+00 -0.8703885E+00
           4
 -0.1437751E+00 -0.1014551E+00  0.2608717E-01  -0.8164967E+00 -0.4714043E+00 -0.3333333E+00
 -0.1437751E+00 -0.9223092E-02 -0.1043485E+00  -0.8164967E+00 -0.4714043E+00 -0.3333333E+00
 -0.1118252E+00 -0.4611573E-01 -0.1304355E+00  -0.8164967E+00 -0.4714043E+00 -0.3333333E+00
 -0.1118252E+00 -0.1383477E+00  0.1807566E-06  -0.8164967E+00 -0.4714043E+00 -0.3333333E+00
           6
  0.6389994E-01  0.5533898E-01  0.1565227E+00   0.4264011E+00 -0.2461826E+00  0.8703885E+00
 -0.1597496E-01 -0.8300850E-01  0.1565227E+00   0.4264011E+00 -0.2461826E+00  0.8703885E+00
  0.1597496E-01 -0.1199011E+00  0.1304357E+00   0.4264011E+00 -0.2461826E+00  0.8703885E+00
  0.6390022E-01 -0.1291244E+00  0.1043485E+00   0.4264011E+00 -0.2461826E+00  0.8703885E+00
  0.1437751E+00  0.9223092E-02  0.1043485E+00   0.4264011E+00 -0.2461826E+00  0.8703885E+00
  0.1118252E+00  0.4611573E-01  0.1304355E+00   0.4264011E+00 -0.2461826E+00  0.8703885E+00
           6
  0.1437751E+00  0.1014551E+00 -0.2608717E-01   0.4264014E+00  0.7385483E+00 -0.5222339E+00
  0.6389994E-01  0.5533898E-01 -0.1565227E+00   0.4264014E+00  0.7385483E+00 -0.5222339E+00
  0.1597496E-01  0.8300850E-01 -0.1565227E+00   0.4264014E+00  0.7385483E+00 -0.5222339E+00
 -0.1597496E-01  0.1199011E+00 -0.1304357E+00   0.4264014E+00  0.7385483E+00 -0.5222339E+00
  0.6390022E-01  0.1660172E+00 -0.1807566E-06   0.4264014E+00  0.7385483E+00 -0.5222339E+00
  0.1118252E+00  0.1383477E+00 -0.1807566E-06   0.4264014E+00  0.7385483E+00 -0.5222339E+00
           4
  0.1437751E+00  0.9223092E-02  0.1043485E+00   0.8164967E+00  0.4714043E+00  0.3333333E+00
  0.1437751E+00  0.1014551E+00 -0.2608717E-01   0.8164967E+00  0.4714043E+00  0.3333333E+00
  0.1118252E+00  0.1383477E+00 -0.1807566E-06   0.8164967E+00  0.4714043E+00  0.3333333E+00
  0.1118252E+00  0.4611573E-01  0.1304355E+00   0.8164967E+00  0.4714043E+00  0.3333333E+00
           6
 -0.6390022E-01 -0.1660172E+00  0.1807566E-06  -0.4264016E+00 -0.7385488E+00 -0.5222330E+00
 -0.1118252E+00 -0.1383477E+00  0.1807566E-06  -0.4264016E+00 -0.7385488E+00 -0.5222330E+00
 -0.1118252E+00 -0.4611573E-01 -0.1304355E+00  -0.4264016E+00 -0.7385488E+00 -0.5222330E+00
 -0.6389994E-01 -0.5533898E-01 -0.1565227E+00  -0.4264016E+00 -0.7385488E+00 -0.5222330E+00
 -0.1597496E-01 -0.8300850E-01 -0.1565227E+00  -0.4264016E+00 -0.7385488E+00 -0.5222330E+00
 -0.1597496E-01 -0.1752405E+00 -0.2608701E-01  -0.4264016E+00 -0.7385488E+00 -0.5222330E+00
           4
  0.1597496E-01 -0.1199011E+00  0.1304357E+00   0.7481084E-15 -0.9428087E+00  0.3333344E+00
 -0.6390022E-01 -0.1660172E+00  0.1807566E-06   0.7481084E-15 -0.9428087E+00  0.3333344E+00
 -0.1597496E-01 -0.1752405E+00 -0.2608701E-01   0.7481084E-15 -0.9428087E+00  0.3333344E+00
  0.6390022E-01 -0.1291244E+00  0.1043485E+00   0.7481084E-15 -0.9428087E+00  0.3333344E+00
           4
 -0.6389994E-01 -0.5533898E-01 -0.1565227E+00  -0.4905670E-15  0.9811341E-16 -0.1000000E+01
  0.1597496E-01  0.8300850E-01 -0.1565227E+00  -0.4905670E-15  0.9811341E-16 -0.1000000E+01
  0.6389994E-01  0.5533898E-01 -0.1565227E+00  -0.4905670E-15  0.9811341E-16 -0.1000000E+01
 -0.1597496E-01 -0.8300850E-01 -0.1565227E+00  -0.4905670E-15  0.9811341E-16 -0.1000000E+01
           6
  0.1437751E+00  0.9223092E-02  0.1043485E+00   0.8164967E+00 -0.4714043E+00 -0.3333333E+00
  0.6390022E-01 -0.1291244E+00  0.1043485E+00   0.8164967E+00 -0.4714043E+00 -0.3333333E+00
 -0.1597496E-01 -0.1752405E+00 -0.2608701E-01   0.8164967E+00 -0.4714043E+00 -0.3333333E+00
 -0.1597496E-01 -0.8300850E-01 -0.1565227E+00   0.8164967E+00 -0.4714043E+00 -0.3333333E+00
  0.6389994E-01  0.5533898E-01 -0.1565227E+00   0.8164967E+00 -0.4714043E+00 -0.3333333E+00
  0.1437751E+00  0.1014551E+00 -0.2608717E-01   0.8164967E+00 -0.4714043E+00 -0.3333333E+00
 BRILLOUIN-ZONE-PRIMCELL_END
 BRILLOUIN-ZONE-CONVCELL
           6
  0.1597496E-01  0.1752405E+00  0.2608701E-01  -0.8164967E+00  0.4714043E+00  0.3333333E+00
 -0.6390022E-01  0.1291244E+00 -0.1043485E+00  -0.8164967E+00  0.4714043E+00  0.3333333E+00
 -0.1437751E+00 -0.9223092E-02 -0.1043485E+00  -0.8164967E+00  0.4714043E+00  0.3333333E+00
 -0.1437751E+00 -0.1014551E+00  0.2608717E-01  -0.8164967E+00  0.4714043E+00  0.3333333E+00
 -0.6389994E-01 -0.5533898E-01  0.1565227E+00  -0.8164967E+00  0.4714043E+00  0.3333333E+00
  0.1597496E-01  0.8300850E-01  0.1565227E+00  -0.8164967E+00  0.4714043E+00  0.3333333E+00
           4
 -0.1597496E-01 -0.8300850E-01  0.1565227E+00  -0.3924536E-15 -0.1962268E-15  0.1000000E+01
  0.6389994E-01  0.5533898E-01  0.1565227E+00  -0.3924536E-15 -0.1962268E-15  0.1000000E+01
  0.1597496E-01  0.8300850E-01  0.1565227E+00  -0.3924536E-15 -0.1962268E-15  0.1000000E+01
 -0.6389994E-01 -0.5533898E-01  0.1565227E+00  -0.3924536E-15 -0.1962268E-15  0.1000000E+01
           6
  0.1118252E+00  0.4611573E-01  0.1304355E+00   0.4264016E+00  0.7385488E+00  0.5222330E+00
  0.1118252E+00  0.1383477E+00 -0.1807566E-06   0.4264016E+00  0.7385488E+00  0.5222330E+00
  0.6390022E-01  0.1660172E+00 -0.1807566E-06   0.4264016E+00  0.7385488E+00  0.5222330E+00
  0.1597496E-01  0.1752405E+00  0.2608701E-01   0.4264016E+00  0.7385488E+00  0.5222330E+00
  0.1597496E-01  0.8300850E-01  0.1565227E+00   0.4264016E+00  0.7385488E+00  0.5222330E+00
  0.6389994E-01  0.5533898E-01  0.1565227E+00   0.4264016E+00  0.7385488E+00  0.5222330E+00
           6
 -0.1597496E-01 -0.8300850E-01  0.1565227E+00  -0.4264014E+00 -0.7385483E+00  0.5222339E+00
 -0.6389994E-01 -0.5533898E-01  0.1565227E+00  -0.4264014E+00 -0.7385483E+00  0.5222339E+00
 -0.1437751E+00 -0.1014551E+00  0.2608717E-01  -0.4264014E+00 -0.7385483E+00  0.5222339E+00
 -0.1118252E+00 -0.1383477E+00  0.1807566E-06  -0.4264014E+00 -0.7385483E+00  0.5222339E+00
 -0.6390022E-01 -0.1660172E+00  0.1807566E-06  -0.4264014E+00 -0.7385483E+00  0.5222339E+00
  0.1597496E-01 -0.1199011E+00  0.1304357E+00  -0.4264014E+00 -0.7385483E+00  0.5222339E+00
           4
  0.6390022E-01  0.1660172E+00 -0.1807566E-06   0.4433456E-15  0.9428087E+00 -0.3333344E+00
 -0.1597496E-01  0.1199011E+00 -0.1304357E+00   0.4433456E-15  0.9428087E+00 -0.3333344E+00
 -0.6390022E-01  0.1291244E+00 -0.1043485E+00   0.4433456E-15  0.9428087E+00 -0.3333344E+00
  0.1597496E-01  0.1752405E+00  0.2608701E-01   0.4433456E-15  0.9428087E+00 -0.3333344E+00
           6
 -0.1597496E-01  0.1199011E+00 -0.1304357E+00  -0.4264011E+00  0.2461826E+00 -0.8703885E+00
  0.1597496E-01  0.8300850E-01 -0.1565227E+00  -0.4264011E+00  0.2461826E+00 -0.8703885E+00
 -0.6389994E-01 -0.5533898E-01 -0.1565227E+00  -0.4264011E+00  0.2461826E+00 -0.8703885E+00
 -0.1118252E+00 -0.4611573E-01 -0.1304355E+00  -0.4264011E+00  0.2461826E+00 -0.8703885E+00
 -0.1437751E+00 -0.9223092E-02 -0.1043485E+00  -0.4264011E+00  0.2461826E+00 -0.8703885E+00
 -0.6390022E-01  0.1291244E+00 -0.1043485E+00  -0.4264011E+00  0.2461826E+00 -0.8703885E+00
           4
 -0.1437751E+00 -0.1014551E+00  0.2608717E-01  -0.8164967E+00 -0.4714043E+00 -0.3333333E+00
 -0.1437751E+00 -0.9223092E-02 -0.1043485E+00  -0.8164967E+00 -0.4714043E+00 -0.3333333E+00
 -0.1118252E+00 -0.4611573E-01 -0.1304355E+00  -0.8164967E+00 -0.4714043E+00 -0.3333333E+00
 -0.1118252E+00 -0.1383477E+00  0.1807566E-06  -0.8164967E+00 -0.4714043E+00 -0.3333333E+00
           6
  0.6389994E-01  0.5533898E-01  0.1565227E+00   0.4264011E+00 -0.2461826E+00  0.8703885E+00
 -0.1597496E-01 -0.8300850E-01  0.1565227E+00   0.4264011E+00 -0.2461826E+00  0.8703885E+00
  0.1597496E-01 -0.1199011E+00  0.1304357E+00   0.4264011E+00 -0.2461826E+00  0.8703885E+00
  0.6390022E-01 -0.1291244E+00  0.1043485E+00   0.4264011E+00 -0.2461826E+00  0.8703885E+00
  0.1437751E+00  0.9223092E-02  0.1043485E+00   0.4264011E+00 -0.2461826E+00  0.8703885E+00
  0.1118252E+00  0.4611573E-01  0.1304355E+00   0.4264011E+00 -0.2461826E+00  0.8703885E+00
           6
  0.1437751E+00  0.1014551E+00 -0.2608717E-01   0.4264014E+00  0.7385483E+00 -0.5222339E+00
  0.6389994E-01  0.5533898E-01 -0.1565227E+00   0.4264014E+00  0.7385483E+00 -0.5222339E+00
  0.1597496E-01  0.8300850E-01 -0.1565227E+00   0.4264014E+00  0.7385483E+00 -0.5222339E+00
 -0.1597496E-01  0.1199011E+00 -0.1304357E+00   0.4264014E+00  0.7385483E+00 -0.5222339E+00
  0.6390022E-01  0.1660172E+00 -0.1807566E-06   0.4264014E+00  0.7385483E+00 -0.5222339E+00
  0.1118252E+00  0.1383477E+00 -0.1807566E-06   0.4264014E+00  0.7385483E+00 -0.5222339E+00
           4
  0.1437751E+00  0.9223092E-02  0.1043485E+00   0.8164967E+00  0.4714043E+00  0.3333333E+00
  0.1437751E+00  0.1014551E+00 -0.2608717E-01   0.8164967E+00  0.4714043E+00  0.3333333E+00
  0.1118252E+00  0.1383477E+00 -0.1807566E-06   0.8164967E+00  0.4714043E+00  0.3333333E+00
  0.1118252E+00  0.4611573E-01  0.1304355E+00   0.8164967E+00  0.4714043E+00  0.3333333E+00
           6
 -0.6390022E-01 -0.1660172E+00  0.1807566E-06  -0.4264016E+00 -0.7385488E+00 -0.5222330E+00
 -0.1118252E+00 -0.1383477E+00  0.1807566E-06  -0.4264016E+00 -0.7385488E+00 -0.5222330E+00
 -0.1118252E+00 -0.4611573E-01 -0.1304355E+00  -0.4264016E+00 -0.7385488E+00 -0.5222330E+00
 -0.6389994E-01 -0.5533898E-01 -0.1565227E+00  -0.4264016E+00 -0.7385488E+00 -0.5222330E+00
 -0.1597496E-01 -0.8300850E-01 -0.1565227E+00  -0.4264016E+00 -0.7385488E+00 -0.5222330E+00
 -0.1597496E-01 -0.1752405E+00 -0.2608701E-01  -0.4264016E+00 -0.7385488E+00 -0.5222330E+00
           4
  0.1597496E-01 -0.1199011E+00  0.1304357E+00   0.7481084E-15 -0.9428087E+00  0.3333344E+00
 -0.6390022E-01 -0.1660172E+00  0.1807566E-06   0.7481084E-15 -0.9428087E+00  0.3333344E+00
 -0.1597496E-01 -0.1752405E+00 -0.2608701E-01   0.7481084E-15 -0.9428087E+00  0.3333344E+00
  0.6390022E-01 -0.1291244E+00  0.1043485E+00   0.7481084E-15 -0.9428087E+00  0.3333344E+00
           4
 -0.6389994E-01 -0.5533898E-01 -0.1565227E+00  -0.4905670E-15  0.9811341E-16 -0.1000000E+01
  0.1597496E-01  0.8300850E-01 -0.1565227E+00  -0.4905670E-15  0.9811341E-16 -0.1000000E+01
  0.6389994E-01  0.5533898E-01 -0.1565227E+00  -0.4905670E-15  0.9811341E-16 -0.1000000E+01
 -0.1597496E-01 -0.8300850E-01 -0.1565227E+00  -0.4905670E-15  0.9811341E-16 -0.1000000E+01
           6
  0.1437751E+00  0.9223092E-02  0.1043485E+00   0.8164967E+00 -0.4714043E+00 -0.3333333E+00
  0.6390022E-01 -0.1291244E+00  0.1043485E+00   0.8164967E+00 -0.4714043E+00 -0.3333333E+00
 -0.1597496E-01 -0.1752405E+00 -0.2608701E-01   0.8164967E+00 -0.4714043E+00 -0.3333333E+00
 -0.1597496E-01 -0.8300850E-01 -0.1565227E+00   0.8164967E+00 -0.4714043E+00 -0.3333333E+00
  0.6389994E-01  0.5533898E-01 -0.1565227E+00   0.8164967E+00 -0.4714043E+00 -0.3333333E+00
  0.1437751E+00  0.1014551E+00 -0.2608717E-01   0.8164967E+00 -0.4714043E+00 -0.3333333E+00
 BRILLOUIN-ZONE-CONVCELL_END
 ATOMS
   25    5.8622754950    3.3918211100    2.3997051200    0.0000285600   -0.0000164900    0.0000297900
   25    9.7746353760    3.3918201300    2.3997046890    0.0000287500   -0.0000166000    0.0000297300
   16    3.9186195780    4.5139927960    3.1905383480   -0.0000286400    0.0000165400   -0.0000297600
   16    7.8309768350    4.5139933310    3.1905386680   -0.0000286700    0.0000165500   -0.0000297600
 FRAMES
1      0.0000000000    0.0000000000    0.0000000000      7.8247163660    0.0000000000    0.0000000000
1      0.0000000000    0.0000000000    0.0000000000      1.9561790920    3.3882039080    0.0000000000
1      0.0000000000    0.0000000000    0.0000000000      1.9561790920    1.1294039110    3.1944248070
1      1.9561790920    1.1294039110    3.1944248070      9.7808954580    1.1294039110    3.1944248070
1      1.9561790920    1.1294039110    3.1944248070      3.9123581840    4.5176078190    3.1944248070
1      1.9561790920    3.3882039080    0.0000000000      9.7808954580    3.3882039080    0.0000000000
1      1.9561790920    3.3882039080    0.0000000000      3.9123581840    4.5176078190    3.1944248070
1      3.9123581840    4.5176078190    3.1944248070     11.7370745500    4.5176078190    3.1944248070
1      7.8247163660    0.0000000000    0.0000000000      9.7808954580    3.3882039080    0.0000000000
1      7.8247163660    0.0000000000    0.0000000000      9.7808954580    1.1294039110    3.1944248070
1      9.7808954580    1.1294039110    3.1944248070     11.7370745500    4.5176078190    3.1944248070
1      9.7808954580    3.3882039080    0.0000000000     11.7370745500    4.5176078190    3.1944248070
