 INFO
nunit      1    1    1
unit   cell
celltype   primcell
shape   parapipedal
 END_INFO
 DIM-GROUP
           3           1
 PRIMVEC
    2.7161989960    0.0000000000    0.0000000000
    0.0000000000    2.7161989960    0.0000000000
    0.0000000000    0.0000000000    2.7161989960
 CONVVEC
    2.7161989960    0.0000000000    0.0000000000
    0.0000000000    2.7161989960    0.0000000000
    0.0000000000    0.0000000000    2.7161989960
 PRIMCOORD
           2           1
 26      0.0000000000     0.0000000000     0.0000000000     0.0000000000     0.0000000000     0.0000000000
 26      1.3580998920     1.3580998920     1.3580998920     0.0000000000     0.0000000000     0.0000000000
 CONVCOORD
           2           1
 26      0.0000000000     0.0000000000     0.0000000000
 26      1.3580998920     1.3580998920     1.3580998920
 RECIP-PRIMVEC
    0.3681615380    0.0000000000    0.0000000000

    0.0000000000    0.3681615380    0.0000000000

    0.0000000000    0.0000000000    0.3681615380

 RECIP-CONVVEC
    0.3681615380    0.0000000000    0.0000000000

    0.0000000000    0.3681615380    0.0000000000

    0.0000000000    0.0000000000    0.3681615380

 WIGNER-SEITZ-PRIMCELL
           4
 -0.1358099E+01 -0.1358099E+01  0.1358099E+01  -0.1000000E+01 -0.8174828E-16  0.8174828E-16
 -0.1358099E+01  0.1358099E+01  0.1358099E+01  -0.1000000E+01 -0.8174828E-16  0.8174828E-16
 -0.1358099E+01  0.1358099E+01 -0.1358099E+01  -0.1000000E+01 -0.8174828E-16  0.8174828E-16
 -0.1358099E+01 -0.1358099E+01 -0.1358099E+01  -0.1000000E+01 -0.8174828E-16  0.8174828E-16
           4
 -0.1358099E+01 -0.1358099E+01 -0.1358099E+01  -0.0000000E+00 -0.1000000E+01 -0.4087414E-16
  0.1358099E+01 -0.1358099E+01 -0.1358099E+01  -0.0000000E+00 -0.1000000E+01 -0.4087414E-16
  0.1358099E+01 -0.1358099E+01  0.1358099E+01  -0.0000000E+00 -0.1000000E+01 -0.4087414E-16
 -0.1358099E+01 -0.1358099E+01  0.1358099E+01  -0.0000000E+00 -0.1000000E+01 -0.4087414E-16
           4
 -0.1358099E+01  0.1358099E+01 -0.1358099E+01   0.6019315E-16 -0.1931901E-16 -0.1000000E+01
  0.1358099E+01  0.1358099E+01 -0.1358099E+01   0.6019315E-16 -0.1931901E-16 -0.1000000E+01
  0.1358099E+01 -0.1358099E+01 -0.1358099E+01   0.6019315E-16 -0.1931901E-16 -0.1000000E+01
 -0.1358099E+01 -0.1358099E+01 -0.1358099E+01   0.6019315E-16 -0.1931901E-16 -0.1000000E+01
           4
  0.1358099E+01 -0.1358099E+01  0.1358099E+01  -0.1226224E-15 -0.6019315E-16  0.1000000E+01
  0.1358099E+01  0.1358099E+01  0.1358099E+01  -0.1226224E-15 -0.6019315E-16  0.1000000E+01
 -0.1358099E+01  0.1358099E+01  0.1358099E+01  -0.1226224E-15 -0.6019315E-16  0.1000000E+01
 -0.1358099E+01 -0.1358099E+01  0.1358099E+01  -0.1226224E-15 -0.6019315E-16  0.1000000E+01
           4
 -0.1358099E+01  0.1358099E+01  0.1358099E+01   0.0000000E+00  0.1000000E+01 -0.2236130E-17
  0.1358099E+01  0.1358099E+01  0.1358099E+01   0.0000000E+00  0.1000000E+01 -0.2236130E-17
  0.1358099E+01  0.1358099E+01 -0.1358099E+01   0.0000000E+00  0.1000000E+01 -0.2236130E-17
 -0.1358099E+01  0.1358099E+01 -0.1358099E+01   0.0000000E+00  0.1000000E+01 -0.2236130E-17
           4
  0.1358099E+01 -0.1358099E+01  0.1358099E+01   0.1000000E+01 -0.8174828E-16 -0.8174828E-16
  0.1358099E+01 -0.1358099E+01 -0.1358099E+01   0.1000000E+01 -0.8174828E-16 -0.8174828E-16
  0.1358099E+01  0.1358099E+01 -0.1358099E+01   0.1000000E+01 -0.8174828E-16 -0.8174828E-16
  0.1358099E+01  0.1358099E+01  0.1358099E+01   0.1000000E+01 -0.8174828E-16 -0.8174828E-16
 WIGNER-SEITZ-PRIMCELL_END
 WIGNER-SEITZ-CONVCELL
           4
 -0.1358099E+01 -0.1358099E+01  0.1358099E+01  -0.1000000E+01 -0.8174828E-16  0.8174828E-16
 -0.1358099E+01  0.1358099E+01  0.1358099E+01  -0.1000000E+01 -0.8174828E-16  0.8174828E-16
 -0.1358099E+01  0.1358099E+01 -0.1358099E+01  -0.1000000E+01 -0.8174828E-16  0.8174828E-16
 -0.1358099E+01 -0.1358099E+01 -0.1358099E+01  -0.1000000E+01 -0.8174828E-16  0.8174828E-16
           4
 -0.1358099E+01 -0.1358099E+01 -0.1358099E+01  -0.0000000E+00 -0.1000000E+01 -0.4087414E-16
  0.1358099E+01 -0.1358099E+01 -0.1358099E+01  -0.0000000E+00 -0.1000000E+01 -0.4087414E-16
  0.1358099E+01 -0.1358099E+01  0.1358099E+01  -0.0000000E+00 -0.1000000E+01 -0.4087414E-16
 -0.1358099E+01 -0.1358099E+01  0.1358099E+01  -0.0000000E+00 -0.1000000E+01 -0.4087414E-16
           4
 -0.1358099E+01  0.1358099E+01 -0.1358099E+01   0.6019315E-16 -0.1931901E-16 -0.1000000E+01
  0.1358099E+01  0.1358099E+01 -0.1358099E+01   0.6019315E-16 -0.1931901E-16 -0.1000000E+01
  0.1358099E+01 -0.1358099E+01 -0.1358099E+01   0.6019315E-16 -0.1931901E-16 -0.1000000E+01
 -0.1358099E+01 -0.1358099E+01 -0.1358099E+01   0.6019315E-16 -0.1931901E-16 -0.1000000E+01
           4
  0.1358099E+01 -0.1358099E+01  0.1358099E+01  -0.1226224E-15 -0.6019315E-16  0.1000000E+01
  0.1358099E+01  0.1358099E+01  0.1358099E+01  -0.1226224E-15 -0.6019315E-16  0.1000000E+01
 -0.1358099E+01  0.1358099E+01  0.1358099E+01  -0.1226224E-15 -0.6019315E-16  0.1000000E+01
 -0.1358099E+01 -0.1358099E+01  0.1358099E+01  -0.1226224E-15 -0.6019315E-16  0.1000000E+01
           4
 -0.1358099E+01  0.1358099E+01  0.1358099E+01   0.0000000E+00  0.1000000E+01 -0.2236130E-17
  0.1358099E+01  0.1358099E+01  0.1358099E+01   0.0000000E+00  0.1000000E+01 -0.2236130E-17
  0.1358099E+01  0.1358099E+01 -0.1358099E+01   0.0000000E+00  0.1000000E+01 -0.2236130E-17
 -0.1358099E+01  0.1358099E+01 -0.1358099E+01   0.0000000E+00  0.1000000E+01 -0.2236130E-17
           4
  0.1358099E+01 -0.1358099E+01  0.1358099E+01   0.1000000E+01 -0.8174828E-16 -0.8174828E-16
  0.1358099E+01 -0.1358099E+01 -0.1358099E+01   0.1000000E+01 -0.8174828E-16 -0.8174828E-16
  0.1358099E+01  0.1358099E+01 -0.1358099E+01   0.1000000E+01 -0.8174828E-16 -0.8174828E-16
  0.1358099E+01  0.1358099E+01  0.1358099E+01   0.1000000E+01 -0.8174828E-16 -0.8174828E-16
 WIGNER-SEITZ-CONVCELL_END
 BRILLOUIN-ZONE-PRIMCELL
           4
 -0.1840808E+00 -0.1840808E+00  0.1840808E+00  -0.1000000E+01 -0.7538967E-16  0.7538967E-16
 -0.1840808E+00  0.1840808E+00  0.1840808E+00  -0.1000000E+01 -0.7538967E-16  0.7538967E-16
 -0.1840808E+00  0.1840808E+00 -0.1840808E+00  -0.1000000E+01 -0.7538967E-16  0.7538967E-16
 -0.1840808E+00 -0.1840808E+00 -0.1840808E+00  -0.1000000E+01 -0.7538967E-16  0.7538967E-16
           4
 -0.1840808E+00 -0.1840808E+00 -0.1840808E+00  -0.0000000E+00 -0.1000000E+01 -0.3769483E-16
  0.1840808E+00 -0.1840808E+00 -0.1840808E+00  -0.0000000E+00 -0.1000000E+01 -0.3769483E-16
  0.1840808E+00 -0.1840808E+00  0.1840808E+00  -0.0000000E+00 -0.1000000E+01 -0.3769483E-16
 -0.1840808E+00 -0.1840808E+00  0.1840808E+00  -0.0000000E+00 -0.1000000E+01 -0.3769483E-16
           4
 -0.1840808E+00  0.1840808E+00 -0.1840808E+00   0.0000000E+00  0.3769483E-16 -0.1000000E+01
  0.1840808E+00  0.1840808E+00 -0.1840808E+00   0.0000000E+00  0.3769483E-16 -0.1000000E+01
  0.1840808E+00 -0.1840808E+00 -0.1840808E+00   0.0000000E+00  0.3769483E-16 -0.1000000E+01
 -0.1840808E+00 -0.1840808E+00 -0.1840808E+00   0.0000000E+00  0.3769483E-16 -0.1000000E+01
           4
 -0.1840808E+00 -0.1840808E+00  0.1840808E+00  -0.0000000E+00 -0.5399400E-16  0.1000000E+01
  0.1840808E+00 -0.1840808E+00  0.1840808E+00  -0.0000000E+00 -0.5399400E-16  0.1000000E+01
  0.1840808E+00  0.1840808E+00  0.1840808E+00  -0.0000000E+00 -0.5399400E-16  0.1000000E+01
 -0.1840808E+00  0.1840808E+00  0.1840808E+00  -0.0000000E+00 -0.5399400E-16  0.1000000E+01
           4
 -0.1840808E+00  0.1840808E+00  0.1840808E+00   0.0000000E+00  0.1000000E+01 -0.4839266E-16
  0.1840808E+00  0.1840808E+00  0.1840808E+00   0.0000000E+00  0.1000000E+01 -0.4839266E-16
  0.1840808E+00  0.1840808E+00 -0.1840808E+00   0.0000000E+00  0.1000000E+01 -0.4839266E-16
 -0.1840808E+00  0.1840808E+00 -0.1840808E+00   0.0000000E+00  0.1000000E+01 -0.4839266E-16
           4
  0.1840808E+00 -0.1840808E+00 -0.1840808E+00   0.1000000E+01 -0.7538967E-16  0.7538967E-16
  0.1840808E+00  0.1840808E+00 -0.1840808E+00   0.1000000E+01 -0.7538967E-16  0.7538967E-16
  0.1840808E+00  0.1840808E+00  0.1840808E+00   0.1000000E+01 -0.7538967E-16  0.7538967E-16
  0.1840808E+00 -0.1840808E+00  0.1840808E+00   0.1000000E+01 -0.7538967E-16  0.7538967E-16
 BRILLOUIN-ZONE-PRIMCELL_END
 BRILLOUIN-ZONE-CONVCELL
           4
 -0.1840808E+00 -0.1840808E+00  0.1840808E+00  -0.1000000E+01 -0.7538967E-16  0.7538967E-16
 -0.1840808E+00  0.1840808E+00  0.1840808E+00  -0.1000000E+01 -0.7538967E-16  0.7538967E-16
 -0.1840808E+00  0.1840808E+00 -0.1840808E+00  -0.1000000E+01 -0.7538967E-16  0.7538967E-16
 -0.1840808E+00 -0.1840808E+00 -0.1840808E+00  -0.1000000E+01 -0.7538967E-16  0.7538967E-16
           4
 -0.1840808E+00 -0.1840808E+00 -0.1840808E+00  -0.0000000E+00 -0.1000000E+01 -0.3769483E-16
  0.1840808E+00 -0.1840808E+00 -0.1840808E+00  -0.0000000E+00 -0.1000000E+01 -0.3769483E-16
  0.1840808E+00 -0.1840808E+00  0.1840808E+00  -0.0000000E+00 -0.1000000E+01 -0.3769483E-16
 -0.1840808E+00 -0.1840808E+00  0.1840808E+00  -0.0000000E+00 -0.1000000E+01 -0.3769483E-16
           4
 -0.1840808E+00  0.1840808E+00 -0.1840808E+00   0.0000000E+00  0.3769483E-16 -0.1000000E+01
  0.1840808E+00  0.1840808E+00 -0.1840808E+00   0.0000000E+00  0.3769483E-16 -0.1000000E+01
  0.1840808E+00 -0.1840808E+00 -0.1840808E+00   0.0000000E+00  0.3769483E-16 -0.1000000E+01
 -0.1840808E+00 -0.1840808E+00 -0.1840808E+00   0.0000000E+00  0.3769483E-16 -0.1000000E+01
           4
 -0.1840808E+00 -0.1840808E+00  0.1840808E+00  -0.0000000E+00 -0.5399400E-16  0.1000000E+01
  0.1840808E+00 -0.1840808E+00  0.1840808E+00  -0.0000000E+00 -0.5399400E-16  0.1000000E+01
  0.1840808E+00  0.1840808E+00  0.1840808E+00  -0.0000000E+00 -0.5399400E-16  0.1000000E+01
 -0.1840808E+00  0.1840808E+00  0.1840808E+00  -0.0000000E+00 -0.5399400E-16  0.1000000E+01
           4
 -0.1840808E+00  0.1840808E+00  0.1840808E+00   0.0000000E+00  0.1000000E+01 -0.4839266E-16
  0.1840808E+00  0.1840808E+00  0.1840808E+00   0.0000000E+00  0.1000000E+01 -0.4839266E-16
  0.1840808E+00  0.1840808E+00 -0.1840808E+00   0.0000000E+00  0.1000000E+01 -0.4839266E-16
 -0.1840808E+00  0.1840808E+00 -0.1840808E+00   0.0000000E+00  0.1000000E+01 -0.4839266E-16
           4
  0.1840808E+00 -0.1840808E+00 -0.1840808E+00   0.1000000E+01 -0.7538967E-16  0.7538967E-16
  0.1840808E+00  0.1840808E+00 -0.1840808E+00   0.1000000E+01 -0.7538967E-16  0.7538967E-16
  0.1840808E+00  0.1840808E+00  0.1840808E+00   0.1000000E+01 -0.7538967E-16  0.7538967E-16
  0.1840808E+00 -0.1840808E+00  0.1840808E+00   0.1000000E+01 -0.7538967E-16  0.7538967E-16
 BRILLOUIN-ZONE-CONVCELL_END
 ATOMS
   26    0.0000000000    0.0000000000    0.0000000000    0.0000000000    0.0000000000    0.0000000000
   26    1.3580998920    1.3580998920    1.3580998920    0.0000000000    0.0000000000    0.0000000000
   26    0.0000000000    0.0000000000    2.7161989960    0.0000000000    0.0000000000    0.0000000000
   26    0.0000000000    2.7161989960    0.0000000000    0.0000000000    0.0000000000    0.0000000000
   26    0.0000000000    2.7161989960    2.7161989960    0.0000000000    0.0000000000    0.0000000000
   26    2.7161989960    0.0000000000    0.0000000000    0.0000000000    0.0000000000    0.0000000000
   26    2.7161989960    0.0000000000    2.7161989960    0.0000000000    0.0000000000    0.0000000000
   26    2.7161989960    2.7161989960    0.0000000000    0.0000000000    0.0000000000    0.0000000000
   26    2.7161989960    2.7161989960    2.7161989960    0.0000000000    0.0000000000    0.0000000000
 FRAMES
1      0.0000000000    0.0000000000    0.0000000000      2.7161989960    0.0000000000    0.0000000000
1      0.0000000000    0.0000000000    0.0000000000      0.0000000000    2.7161989960    0.0000000000
1      0.0000000000    0.0000000000    0.0000000000      0.0000000000    0.0000000000    2.7161989960
1      0.0000000000    0.0000000000    2.7161989960      2.7161989960    0.0000000000    2.7161989960
1      0.0000000000    0.0000000000    2.7161989960      0.0000000000    2.7161989960    2.7161989960
1      0.0000000000    2.7161989960    0.0000000000      2.7161989960    2.7161989960    0.0000000000
1      0.0000000000    2.7161989960    0.0000000000      0.0000000000    2.7161989960    2.7161989960
1      0.0000000000    2.7161989960    2.7161989960      2.7161989960    2.7161989960    2.7161989960
1      2.7161989960    0.0000000000    0.0000000000      2.7161989960    2.7161989960    0.0000000000
1      2.7161989960    0.0000000000    0.0000000000      2.7161989960    0.0000000000    2.7161989960
1      2.7161989960    0.0000000000    2.7161989960      2.7161989960    2.7161989960    2.7161989960
1      2.7161989960    2.7161989960    0.0000000000      2.7161989960    2.7161989960    2.7161989960
