 INFO
nunit      1    1    1
unit   cell
celltype   primcell
shape   parapipedal
 END_INFO
 DIM-GROUP
           3           9
 PRIMVEC
    2.4584658800    0.0000000000    0.0000000000
   -1.2292317060    2.1290923500    0.0000000000
    0.0000000000    0.0000000000    6.5976111710
 CONVVEC
    2.4584658800    0.0000000000    0.0000000000
   -1.2292317060    2.1290923500    0.0000000000
    0.0000000000    0.0000000000    6.5976111710
 PRIMCOORD
           4           1
  6      0.0000000000     0.0000000000     1.6494028510     0.0000000000     0.0000000000     0.0000000000
  6      0.0000000000     0.0000000000     4.9482085520    -0.0000000000    -0.0000000000     0.0000000000
  6      0.0000000000     1.4193955380     1.6494028510     0.0000000000     0.0000000000     0.0000000000
  6      1.2292325940     0.7096977690     4.9482085520    -0.0000000000    -0.0000000000     0.0000000000
 CONVCOORD
           4           1
  6      0.0000000000     0.0000000000     1.6494028510
  6      0.0000000000     0.0000000000     4.9482085520
  6      0.0000000000     1.4193955380     1.6494028510
  6      1.2292325940     0.7096977690     4.9482085520
 RECIP-PRIMVEC
    0.4067577297    0.2348416207   -0.0000000000

    0.0000000000    0.4696837129    0.0000000000

    0.0000000000   -0.0000000000    0.1515700113

 RECIP-CONVVEC
    0.4067577297    0.2348416207   -0.0000000000

    0.0000000000    0.4696837129    0.0000000000

    0.0000000000   -0.0000000000    0.1515700113

 WIGNER-SEITZ-PRIMCELL
           4
  0.1229233E+01 -0.7096969E+00 -0.3298806E+01   0.1000000E+01 -0.0000000E+00 -0.0000000E+00
  0.1229233E+01  0.7096969E+00 -0.3298806E+01   0.1000000E+01 -0.0000000E+00 -0.0000000E+00
  0.1229233E+01  0.7096969E+00  0.3298806E+01   0.1000000E+01 -0.0000000E+00 -0.0000000E+00
  0.1229233E+01 -0.7096969E+00  0.3298806E+01   0.1000000E+01 -0.0000000E+00 -0.0000000E+00
           4
 -0.1234000E-05 -0.1419395E+01  0.3298806E+01   0.4999999E+00 -0.8660255E+00 -0.1541214E-15
 -0.1234000E-05 -0.1419395E+01 -0.3298806E+01   0.4999999E+00 -0.8660255E+00 -0.1541214E-15
  0.1229233E+01 -0.7096969E+00 -0.3298806E+01   0.4999999E+00 -0.8660255E+00 -0.1541214E-15
  0.1229233E+01 -0.7096969E+00  0.3298806E+01   0.4999999E+00 -0.8660255E+00 -0.1541214E-15
           4
  0.1229233E+01  0.7096969E+00  0.3298806E+01   0.5000007E+00  0.8660250E+00 -0.1422661E-15
  0.1229233E+01  0.7096969E+00 -0.3298806E+01   0.5000007E+00  0.8660250E+00 -0.1422661E-15
  0.1234000E-05  0.1419395E+01 -0.3298806E+01   0.5000007E+00  0.8660250E+00 -0.1422661E-15
  0.1234000E-05  0.1419395E+01  0.3298806E+01   0.5000007E+00  0.8660250E+00 -0.1422661E-15
           6
 -0.1229233E+01 -0.7096969E+00 -0.3298806E+01  -0.5090526E-15  0.0000000E+00 -0.1000000E+01
 -0.1229233E+01  0.7096969E+00 -0.3298806E+01  -0.5090526E-15  0.0000000E+00 -0.1000000E+01
  0.1234000E-05  0.1419395E+01 -0.3298806E+01  -0.5090526E-15  0.0000000E+00 -0.1000000E+01
  0.1229233E+01  0.7096969E+00 -0.3298806E+01  -0.5090526E-15  0.0000000E+00 -0.1000000E+01
  0.1229233E+01 -0.7096969E+00 -0.3298806E+01  -0.5090526E-15  0.0000000E+00 -0.1000000E+01
 -0.1234000E-05 -0.1419395E+01 -0.3298806E+01  -0.5090526E-15  0.0000000E+00 -0.1000000E+01
           6
 -0.1234000E-05 -0.1419395E+01  0.3298806E+01  -0.0000000E+00 -0.0000000E+00  0.1000000E+01
  0.1229233E+01 -0.7096969E+00  0.3298806E+01  -0.0000000E+00 -0.0000000E+00  0.1000000E+01
  0.1229233E+01  0.7096969E+00  0.3298806E+01  -0.0000000E+00 -0.0000000E+00  0.1000000E+01
  0.1234000E-05  0.1419395E+01  0.3298806E+01  -0.0000000E+00 -0.0000000E+00  0.1000000E+01
 -0.1229233E+01  0.7096969E+00  0.3298806E+01  -0.0000000E+00 -0.0000000E+00  0.1000000E+01
 -0.1229233E+01 -0.7096969E+00  0.3298806E+01  -0.0000000E+00 -0.0000000E+00  0.1000000E+01
           4
 -0.1234000E-05 -0.1419395E+01  0.3298806E+01  -0.5000007E+00 -0.8660250E+00 -0.2371102E-16
 -0.1229233E+01 -0.7096969E+00  0.3298806E+01  -0.5000007E+00 -0.8660250E+00 -0.2371102E-16
 -0.1229233E+01 -0.7096969E+00 -0.3298806E+01  -0.5000007E+00 -0.8660250E+00 -0.2371102E-16
 -0.1234000E-05 -0.1419395E+01 -0.3298806E+01  -0.5000007E+00 -0.8660250E+00 -0.2371102E-16
           4
  0.1234000E-05  0.1419395E+01  0.3298806E+01  -0.4999999E+00  0.8660255E+00  0.4742196E-16
  0.1234000E-05  0.1419395E+01 -0.3298806E+01  -0.4999999E+00  0.8660255E+00  0.4742196E-16
 -0.1229233E+01  0.7096969E+00 -0.3298806E+01  -0.4999999E+00  0.8660255E+00  0.4742196E-16
 -0.1229233E+01  0.7096969E+00  0.3298806E+01  -0.4999999E+00  0.8660255E+00  0.4742196E-16
           4
 -0.1229233E+01  0.7096969E+00  0.3298806E+01  -0.1000000E+01  0.0000000E+00  0.0000000E+00
 -0.1229233E+01  0.7096969E+00 -0.3298806E+01  -0.1000000E+01  0.0000000E+00  0.0000000E+00
 -0.1229233E+01 -0.7096969E+00 -0.3298806E+01  -0.1000000E+01  0.0000000E+00  0.0000000E+00
 -0.1229233E+01 -0.7096969E+00  0.3298806E+01  -0.1000000E+01  0.0000000E+00  0.0000000E+00
 WIGNER-SEITZ-PRIMCELL_END
 WIGNER-SEITZ-CONVCELL
           4
  0.1229233E+01 -0.7096969E+00 -0.3298806E+01   0.1000000E+01 -0.0000000E+00 -0.0000000E+00
  0.1229233E+01  0.7096969E+00 -0.3298806E+01   0.1000000E+01 -0.0000000E+00 -0.0000000E+00
  0.1229233E+01  0.7096969E+00  0.3298806E+01   0.1000000E+01 -0.0000000E+00 -0.0000000E+00
  0.1229233E+01 -0.7096969E+00  0.3298806E+01   0.1000000E+01 -0.0000000E+00 -0.0000000E+00
           4
 -0.1234000E-05 -0.1419395E+01  0.3298806E+01   0.4999999E+00 -0.8660255E+00 -0.1541214E-15
 -0.1234000E-05 -0.1419395E+01 -0.3298806E+01   0.4999999E+00 -0.8660255E+00 -0.1541214E-15
  0.1229233E+01 -0.7096969E+00 -0.3298806E+01   0.4999999E+00 -0.8660255E+00 -0.1541214E-15
  0.1229233E+01 -0.7096969E+00  0.3298806E+01   0.4999999E+00 -0.8660255E+00 -0.1541214E-15
           4
  0.1229233E+01  0.7096969E+00  0.3298806E+01   0.5000007E+00  0.8660250E+00 -0.1422661E-15
  0.1229233E+01  0.7096969E+00 -0.3298806E+01   0.5000007E+00  0.8660250E+00 -0.1422661E-15
  0.1234000E-05  0.1419395E+01 -0.3298806E+01   0.5000007E+00  0.8660250E+00 -0.1422661E-15
  0.1234000E-05  0.1419395E+01  0.3298806E+01   0.5000007E+00  0.8660250E+00 -0.1422661E-15
           6
 -0.1229233E+01 -0.7096969E+00 -0.3298806E+01  -0.5090526E-15  0.0000000E+00 -0.1000000E+01
 -0.1229233E+01  0.7096969E+00 -0.3298806E+01  -0.5090526E-15  0.0000000E+00 -0.1000000E+01
  0.1234000E-05  0.1419395E+01 -0.3298806E+01  -0.5090526E-15  0.0000000E+00 -0.1000000E+01
  0.1229233E+01  0.7096969E+00 -0.3298806E+01  -0.5090526E-15  0.0000000E+00 -0.1000000E+01
  0.1229233E+01 -0.7096969E+00 -0.3298806E+01  -0.5090526E-15  0.0000000E+00 -0.1000000E+01
 -0.1234000E-05 -0.1419395E+01 -0.3298806E+01  -0.5090526E-15  0.0000000E+00 -0.1000000E+01
           6
 -0.1234000E-05 -0.1419395E+01  0.3298806E+01  -0.0000000E+00 -0.0000000E+00  0.1000000E+01
  0.1229233E+01 -0.7096969E+00  0.3298806E+01  -0.0000000E+00 -0.0000000E+00  0.1000000E+01
  0.1229233E+01  0.7096969E+00  0.3298806E+01  -0.0000000E+00 -0.0000000E+00  0.1000000E+01
  0.1234000E-05  0.1419395E+01  0.3298806E+01  -0.0000000E+00 -0.0000000E+00  0.1000000E+01
 -0.1229233E+01  0.7096969E+00  0.3298806E+01  -0.0000000E+00 -0.0000000E+00  0.1000000E+01
 -0.1229233E+01 -0.7096969E+00  0.3298806E+01  -0.0000000E+00 -0.0000000E+00  0.1000000E+01
           4
 -0.1234000E-05 -0.1419395E+01  0.3298806E+01  -0.5000007E+00 -0.8660250E+00 -0.2371102E-16
 -0.1229233E+01 -0.7096969E+00  0.3298806E+01  -0.5000007E+00 -0.8660250E+00 -0.2371102E-16
 -0.1229233E+01 -0.7096969E+00 -0.3298806E+01  -0.5000007E+00 -0.8660250E+00 -0.2371102E-16
 -0.1234000E-05 -0.1419395E+01 -0.3298806E+01  -0.5000007E+00 -0.8660250E+00 -0.2371102E-16
           4
  0.1234000E-05  0.1419395E+01  0.3298806E+01  -0.4999999E+00  0.8660255E+00  0.4742196E-16
  0.1234000E-05  0.1419395E+01 -0.3298806E+01  -0.4999999E+00  0.8660255E+00  0.4742196E-16
 -0.1229233E+01  0.7096969E+00 -0.3298806E+01  -0.4999999E+00  0.8660255E+00  0.4742196E-16
 -0.1229233E+01  0.7096969E+00  0.3298806E+01  -0.4999999E+00  0.8660255E+00  0.4742196E-16
           4
 -0.1229233E+01  0.7096969E+00  0.3298806E+01  -0.1000000E+01  0.0000000E+00  0.0000000E+00
 -0.1229233E+01  0.7096969E+00 -0.3298806E+01  -0.1000000E+01  0.0000000E+00  0.0000000E+00
 -0.1229233E+01 -0.7096969E+00 -0.3298806E+01  -0.1000000E+01  0.0000000E+00  0.0000000E+00
 -0.1229233E+01 -0.7096969E+00  0.3298806E+01  -0.1000000E+01  0.0000000E+00  0.0000000E+00
 WIGNER-SEITZ-CONVCELL_END
 BRILLOUIN-ZONE-PRIMCELL
           4
 -0.2711719E+00  0.2357526E-06 -0.7578501E-01  -0.8660255E+00 -0.4999999E+00 -0.0000000E+00
 -0.1355858E+00 -0.2348419E+00 -0.7578501E-01  -0.8660255E+00 -0.4999999E+00 -0.0000000E+00
 -0.1355858E+00 -0.2348419E+00  0.7578501E-01  -0.8660255E+00 -0.4999999E+00 -0.0000000E+00
 -0.2711719E+00  0.2357526E-06  0.7578501E-01  -0.8660255E+00 -0.4999999E+00 -0.0000000E+00
           4
 -0.1355858E+00  0.2348419E+00  0.7578501E-01  -0.8660250E+00  0.5000007E+00 -0.2183634E-15
 -0.1355858E+00  0.2348419E+00 -0.7578501E-01  -0.8660250E+00  0.5000007E+00 -0.2183634E-15
 -0.2711719E+00  0.2357526E-06 -0.7578501E-01  -0.8660250E+00  0.5000007E+00 -0.2183634E-15
 -0.2711719E+00  0.2357526E-06  0.7578501E-01  -0.8660250E+00  0.5000007E+00 -0.2183634E-15
           4
 -0.1355858E+00 -0.2348419E+00 -0.7578501E-01  -0.0000000E+00 -0.1000000E+01  0.1790596E-15
  0.1355858E+00 -0.2348419E+00 -0.7578501E-01  -0.0000000E+00 -0.1000000E+01  0.1790596E-15
  0.1355858E+00 -0.2348419E+00  0.7578501E-01  -0.0000000E+00 -0.1000000E+01  0.1790596E-15
 -0.1355858E+00 -0.2348419E+00  0.7578501E-01  -0.0000000E+00 -0.1000000E+01  0.1790596E-15
           6
 -0.2711719E+00  0.2357526E-06 -0.7578501E-01   0.0000000E+00 -0.5448048E-16 -0.1000000E+01
 -0.1355858E+00  0.2348419E+00 -0.7578501E-01   0.0000000E+00 -0.5448048E-16 -0.1000000E+01
  0.1355858E+00  0.2348419E+00 -0.7578501E-01   0.0000000E+00 -0.5448048E-16 -0.1000000E+01
  0.2711719E+00 -0.2357526E-06 -0.7578501E-01   0.0000000E+00 -0.5448048E-16 -0.1000000E+01
  0.1355858E+00 -0.2348419E+00 -0.7578501E-01   0.0000000E+00 -0.5448048E-16 -0.1000000E+01
 -0.1355858E+00 -0.2348419E+00 -0.7578501E-01   0.0000000E+00 -0.5448048E-16 -0.1000000E+01
           6
 -0.1355858E+00 -0.2348419E+00  0.7578501E-01  -0.0000000E+00 -0.8172072E-16  0.1000000E+01
  0.1355858E+00 -0.2348419E+00  0.7578501E-01  -0.0000000E+00 -0.8172072E-16  0.1000000E+01
  0.2711719E+00 -0.2357526E-06  0.7578501E-01  -0.0000000E+00 -0.8172072E-16  0.1000000E+01
  0.1355858E+00  0.2348419E+00  0.7578501E-01  -0.0000000E+00 -0.8172072E-16  0.1000000E+01
 -0.1355858E+00  0.2348419E+00  0.7578501E-01  -0.0000000E+00 -0.8172072E-16  0.1000000E+01
 -0.2711719E+00  0.2357526E-06  0.7578501E-01  -0.0000000E+00 -0.8172072E-16  0.1000000E+01
           4
  0.1355858E+00  0.2348419E+00  0.7578501E-01   0.0000000E+00  0.1000000E+01  0.0000000E+00
  0.1355858E+00  0.2348419E+00 -0.7578501E-01   0.0000000E+00  0.1000000E+01  0.0000000E+00
 -0.1355858E+00  0.2348419E+00 -0.7578501E-01   0.0000000E+00  0.1000000E+01  0.0000000E+00
 -0.1355858E+00  0.2348419E+00  0.7578501E-01   0.0000000E+00  0.1000000E+01  0.0000000E+00
           4
  0.1355858E+00 -0.2348419E+00 -0.7578501E-01   0.8660250E+00 -0.5000007E+00 -0.1195529E-15
  0.2711719E+00 -0.2357526E-06 -0.7578501E-01   0.8660250E+00 -0.5000007E+00 -0.1195529E-15
  0.2711719E+00 -0.2357526E-06  0.7578501E-01   0.8660250E+00 -0.5000007E+00 -0.1195529E-15
  0.1355858E+00 -0.2348419E+00  0.7578501E-01   0.8660250E+00 -0.5000007E+00 -0.1195529E-15
           4
  0.1355858E+00  0.2348419E+00  0.7578501E-01   0.8660255E+00  0.4999999E+00 -0.3171740E-15
  0.2711719E+00 -0.2357526E-06  0.7578501E-01   0.8660255E+00  0.4999999E+00 -0.3171740E-15
  0.2711719E+00 -0.2357526E-06 -0.7578501E-01   0.8660255E+00  0.4999999E+00 -0.3171740E-15
  0.1355858E+00  0.2348419E+00 -0.7578501E-01   0.8660255E+00  0.4999999E+00 -0.3171740E-15
 BRILLOUIN-ZONE-PRIMCELL_END
 BRILLOUIN-ZONE-CONVCELL
           4
 -0.2711719E+00  0.2357526E-06 -0.7578501E-01  -0.8660255E+00 -0.4999999E+00 -0.0000000E+00
 -0.1355858E+00 -0.2348419E+00 -0.7578501E-01  -0.8660255E+00 -0.4999999E+00 -0.0000000E+00
 -0.1355858E+00 -0.2348419E+00  0.7578501E-01  -0.8660255E+00 -0.4999999E+00 -0.0000000E+00
 -0.2711719E+00  0.2357526E-06  0.7578501E-01  -0.8660255E+00 -0.4999999E+00 -0.0000000E+00
           4
 -0.1355858E+00  0.2348419E+00  0.7578501E-01  -0.8660250E+00  0.5000007E+00 -0.2183634E-15
 -0.1355858E+00  0.2348419E+00 -0.7578501E-01  -0.8660250E+00  0.5000007E+00 -0.2183634E-15
 -0.2711719E+00  0.2357526E-06 -0.7578501E-01  -0.8660250E+00  0.5000007E+00 -0.2183634E-15
 -0.2711719E+00  0.2357526E-06  0.7578501E-01  -0.8660250E+00  0.5000007E+00 -0.2183634E-15
           4
 -0.1355858E+00 -0.2348419E+00 -0.7578501E-01  -0.0000000E+00 -0.1000000E+01  0.1790596E-15
  0.1355858E+00 -0.2348419E+00 -0.7578501E-01  -0.0000000E+00 -0.1000000E+01  0.1790596E-15
  0.1355858E+00 -0.2348419E+00  0.7578501E-01  -0.0000000E+00 -0.1000000E+01  0.1790596E-15
 -0.1355858E+00 -0.2348419E+00  0.7578501E-01  -0.0000000E+00 -0.1000000E+01  0.1790596E-15
           6
 -0.2711719E+00  0.2357526E-06 -0.7578501E-01   0.0000000E+00 -0.5448048E-16 -0.1000000E+01
 -0.1355858E+00  0.2348419E+00 -0.7578501E-01   0.0000000E+00 -0.5448048E-16 -0.1000000E+01
  0.1355858E+00  0.2348419E+00 -0.7578501E-01   0.0000000E+00 -0.5448048E-16 -0.1000000E+01
  0.2711719E+00 -0.2357526E-06 -0.7578501E-01   0.0000000E+00 -0.5448048E-16 -0.1000000E+01
  0.1355858E+00 -0.2348419E+00 -0.7578501E-01   0.0000000E+00 -0.5448048E-16 -0.1000000E+01
 -0.1355858E+00 -0.2348419E+00 -0.7578501E-01   0.0000000E+00 -0.5448048E-16 -0.1000000E+01
           6
 -0.1355858E+00 -0.2348419E+00  0.7578501E-01  -0.0000000E+00 -0.8172072E-16  0.1000000E+01
  0.1355858E+00 -0.2348419E+00  0.7578501E-01  -0.0000000E+00 -0.8172072E-16  0.1000000E+01
  0.2711719E+00 -0.2357526E-06  0.7578501E-01  -0.0000000E+00 -0.8172072E-16  0.1000000E+01
  0.1355858E+00  0.2348419E+00  0.7578501E-01  -0.0000000E+00 -0.8172072E-16  0.1000000E+01
 -0.1355858E+00  0.2348419E+00  0.7578501E-01  -0.0000000E+00 -0.8172072E-16  0.1000000E+01
 -0.2711719E+00  0.2357526E-06  0.7578501E-01  -0.0000000E+00 -0.8172072E-16  0.1000000E+01
           4
  0.1355858E+00  0.2348419E+00  0.7578501E-01   0.0000000E+00  0.1000000E+01  0.0000000E+00
  0.1355858E+00  0.2348419E+00 -0.7578501E-01   0.0000000E+00  0.1000000E+01  0.0000000E+00
 -0.1355858E+00  0.2348419E+00 -0.7578501E-01   0.0000000E+00  0.1000000E+01  0.0000000E+00
 -0.1355858E+00  0.2348419E+00  0.7578501E-01   0.0000000E+00  0.1000000E+01  0.0000000E+00
           4
  0.1355858E+00 -0.2348419E+00 -0.7578501E-01   0.8660250E+00 -0.5000007E+00 -0.1195529E-15
  0.2711719E+00 -0.2357526E-06 -0.7578501E-01   0.8660250E+00 -0.5000007E+00 -0.1195529E-15
  0.2711719E+00 -0.2357526E-06  0.7578501E-01   0.8660250E+00 -0.5000007E+00 -0.1195529E-15
  0.1355858E+00 -0.2348419E+00  0.7578501E-01   0.8660250E+00 -0.5000007E+00 -0.1195529E-15
           4
  0.1355858E+00  0.2348419E+00  0.7578501E-01   0.8660255E+00  0.4999999E+00 -0.3171740E-15
  0.2711719E+00 -0.2357526E-06  0.7578501E-01   0.8660255E+00  0.4999999E+00 -0.3171740E-15
  0.2711719E+00 -0.2357526E-06 -0.7578501E-01   0.8660255E+00  0.4999999E+00 -0.3171740E-15
  0.1355858E+00  0.2348419E+00 -0.7578501E-01   0.8660255E+00  0.4999999E+00 -0.3171740E-15
 BRILLOUIN-ZONE-CONVCELL_END
 ATOMS
    6    0.0000000000    0.0000000000    1.6494028510    0.0000000000    0.0000000000    0.0000000000
    6    0.0000000000    0.0000000000    4.9482085520   -0.0000000000   -0.0000000000    0.0000000000
    6    0.0000000000    1.4193955380    1.6494028510    0.0000000000    0.0000000000    0.0000000000
    6    1.2292325940    0.7096977690    4.9482085520   -0.0000000000   -0.0000000000    0.0000000000
    6   -1.2292317060    2.1290923500    1.6494028510    0.0000000000    0.0000000000    0.0000000000
    6   -1.2292317060    2.1290923500    4.9482085520   -0.0000000000   -0.0000000000    0.0000000000
    6    2.4584658800    0.0000000000    1.6494028510    0.0000000000    0.0000000000    0.0000000000
    6    2.4584658800    0.0000000000    4.9482085520   -0.0000000000   -0.0000000000    0.0000000000
    6    1.2292341740    2.1290923500    1.6494028510    0.0000000000    0.0000000000    0.0000000000
    6    1.2292341740    2.1290923500    4.9482085520   -0.0000000000   -0.0000000000    0.0000000000
 FRAMES
1      0.0000000000    0.0000000000    0.0000000000      2.4584658800    0.0000000000    0.0000000000
1      0.0000000000    0.0000000000    0.0000000000     -1.2292317060    2.1290923500    0.0000000000
1      0.0000000000    0.0000000000    0.0000000000      0.0000000000    0.0000000000    6.5976111710
1      0.0000000000    0.0000000000    6.5976111710      2.4584658800    0.0000000000    6.5976111710
1      0.0000000000    0.0000000000    6.5976111710     -1.2292317060    2.1290923500    6.5976111710
1     -1.2292317060    2.1290923500    0.0000000000      1.2292341740    2.1290923500    0.0000000000
1     -1.2292317060    2.1290923500    0.0000000000     -1.2292317060    2.1290923500    6.5976111710
1     -1.2292317060    2.1290923500    6.5976111710      1.2292341740    2.1290923500    6.5976111710
1      2.4584658800    0.0000000000    0.0000000000      1.2292341740    2.1290923500    0.0000000000
1      2.4584658800    0.0000000000    0.0000000000      2.4584658800    0.0000000000    6.5976111710
1      2.4584658800    0.0000000000    6.5976111710      1.2292341740    2.1290923500    6.5976111710
1      1.2292341740    2.1290923500    0.0000000000      1.2292341740    2.1290923500    6.5976111710
