 INFO
nunit      1    1    1
unit   cell
celltype   primcell
shape   parapipedal
 END_INFO
 DIM-GROUP
           3           7
 PRIMVEC
    0.0000000000    2.7168527450    2.7168527450
    2.7168527450    0.0000000000    2.7168527450
    2.7168527450    2.7168527450    0.0000000000
 CONVVEC
    0.0000000000    2.7168527450    2.7168527450
    2.7168527450    0.0000000000    2.7168527450
    2.7168527450    2.7168527450    0.0000000000
 PRIMCOORD
           2           1
 14      4.0752783280     4.0752783280     4.0752783280    -0.0000000000    -0.0000000000    -0.0000000000
 14      2.7168522190     2.7168522190     2.7168522190    -0.0000000000    -0.0000000000    -0.0000000000
 CONVCOORD
           2           1
 14      4.0752783280     4.0752783280     4.0752783280
 14      2.7168522190     2.7168522190     2.7168522190
 RECIP-PRIMVEC
   -0.1840364742    0.1840364742    0.1840364742

    0.1840364742   -0.1840364742    0.1840364742

    0.1840364742    0.1840364742   -0.1840364742

 RECIP-CONVVEC
   -0.1840364742    0.1840364742    0.1840364742

    0.1840364742   -0.1840364742    0.1840364742

    0.1840364742    0.1840364742   -0.1840364742

 WIGNER-SEITZ-PRIMCELL
           4
 -0.1358426E+01 -0.1358426E+01 -0.1358426E+01  -0.0000000E+00 -0.7071068E+00 -0.7071068E+00
  0.0000000E+00  0.0000000E+00 -0.2716853E+01  -0.0000000E+00 -0.7071068E+00 -0.7071068E+00
  0.1358426E+01 -0.1358426E+01 -0.1358426E+01  -0.0000000E+00 -0.7071068E+00 -0.7071068E+00
 -0.0000000E+00 -0.2716853E+01 -0.0000000E+00  -0.0000000E+00 -0.7071068E+00 -0.7071068E+00
           4
  0.2716853E+01  0.0000000E+00  0.0000000E+00   0.7071068E+00  0.0000000E+00 -0.7071068E+00
  0.1358426E+01 -0.1358426E+01 -0.1358426E+01   0.7071068E+00  0.0000000E+00 -0.7071068E+00
  0.0000000E+00  0.0000000E+00 -0.2716853E+01   0.7071068E+00  0.0000000E+00 -0.7071068E+00
  0.1358426E+01  0.1358426E+01 -0.1358426E+01   0.7071068E+00  0.0000000E+00 -0.7071068E+00
           4
 -0.1358426E+01  0.1358426E+01 -0.1358426E+01  -0.7071068E+00 -0.0000000E+00 -0.7071068E+00
  0.0000000E+00  0.0000000E+00 -0.2716853E+01  -0.7071068E+00 -0.0000000E+00 -0.7071068E+00
 -0.1358426E+01 -0.1358426E+01 -0.1358426E+01  -0.7071068E+00 -0.0000000E+00 -0.7071068E+00
 -0.2716853E+01 -0.0000000E+00 -0.0000000E+00  -0.7071068E+00 -0.0000000E+00 -0.7071068E+00
           4
  0.1358426E+01  0.1358426E+01 -0.1358426E+01  -0.0000000E+00  0.7071068E+00 -0.7071068E+00
  0.0000000E+00  0.0000000E+00 -0.2716853E+01  -0.0000000E+00  0.7071068E+00 -0.7071068E+00
 -0.1358426E+01  0.1358426E+01 -0.1358426E+01  -0.0000000E+00  0.7071068E+00 -0.7071068E+00
  0.0000000E+00  0.2716853E+01  0.0000000E+00  -0.0000000E+00  0.7071068E+00 -0.7071068E+00
           4
 -0.0000000E+00 -0.2716853E+01 -0.0000000E+00   0.7071068E+00 -0.7071068E+00 -0.0000000E+00
  0.1358426E+01 -0.1358426E+01 -0.1358426E+01   0.7071068E+00 -0.7071068E+00 -0.0000000E+00
  0.2716853E+01  0.0000000E+00  0.0000000E+00   0.7071068E+00 -0.7071068E+00 -0.0000000E+00
  0.1358426E+01 -0.1358426E+01  0.1358426E+01   0.7071068E+00 -0.7071068E+00 -0.0000000E+00
           4
 -0.1358426E+01 -0.1358426E+01  0.1358426E+01  -0.7071068E+00 -0.7071068E+00  0.0000000E+00
 -0.2716853E+01 -0.0000000E+00 -0.0000000E+00  -0.7071068E+00 -0.7071068E+00  0.0000000E+00
 -0.1358426E+01 -0.1358426E+01 -0.1358426E+01  -0.7071068E+00 -0.7071068E+00  0.0000000E+00
 -0.0000000E+00 -0.2716853E+01 -0.0000000E+00  -0.7071068E+00 -0.7071068E+00  0.0000000E+00
           4
 -0.0000000E+00 -0.0000000E+00  0.2716853E+01   0.0000000E+00 -0.7071068E+00  0.7071068E+00
 -0.1358426E+01 -0.1358426E+01  0.1358426E+01   0.0000000E+00 -0.7071068E+00  0.7071068E+00
 -0.0000000E+00 -0.2716853E+01 -0.0000000E+00   0.0000000E+00 -0.7071068E+00  0.7071068E+00
  0.1358426E+01 -0.1358426E+01  0.1358426E+01   0.0000000E+00 -0.7071068E+00  0.7071068E+00
           4
  0.2716853E+01  0.0000000E+00  0.0000000E+00   0.7071068E+00  0.7071068E+00 -0.0000000E+00
  0.1358426E+01  0.1358426E+01 -0.1358426E+01   0.7071068E+00  0.7071068E+00 -0.0000000E+00
  0.0000000E+00  0.2716853E+01  0.0000000E+00   0.7071068E+00  0.7071068E+00 -0.0000000E+00
  0.1358426E+01  0.1358426E+01  0.1358426E+01   0.7071068E+00  0.7071068E+00 -0.0000000E+00
           4
  0.0000000E+00  0.0000000E+00  0.2716853E+01   0.7071068E+00  0.0000000E+00  0.7071068E+00
  0.1358426E+01 -0.1358426E+01  0.1358426E+01   0.7071068E+00  0.0000000E+00  0.7071068E+00
  0.2716853E+01  0.0000000E+00  0.0000000E+00   0.7071068E+00  0.0000000E+00  0.7071068E+00
  0.1358426E+01  0.1358426E+01  0.1358426E+01   0.7071068E+00  0.0000000E+00  0.7071068E+00
           4
 -0.1358426E+01  0.1358426E+01  0.1358426E+01  -0.7071068E+00  0.7071068E+00  0.0000000E+00
 -0.0000000E+00  0.2716853E+01 -0.0000000E+00  -0.7071068E+00  0.7071068E+00  0.0000000E+00
 -0.1358426E+01  0.1358426E+01 -0.1358426E+01  -0.7071068E+00  0.7071068E+00  0.0000000E+00
 -0.2716853E+01 -0.0000000E+00 -0.0000000E+00  -0.7071068E+00  0.7071068E+00  0.0000000E+00
           4
 -0.1358426E+01  0.1358426E+01  0.1358426E+01  -0.7071068E+00 -0.0000000E+00  0.7071068E+00
 -0.2716853E+01 -0.0000000E+00 -0.0000000E+00  -0.7071068E+00 -0.0000000E+00  0.7071068E+00
 -0.1358426E+01 -0.1358426E+01  0.1358426E+01  -0.7071068E+00 -0.0000000E+00  0.7071068E+00
 -0.0000000E+00 -0.0000000E+00  0.2716853E+01  -0.7071068E+00 -0.0000000E+00  0.7071068E+00
           4
 -0.0000000E+00 -0.0000000E+00  0.2716853E+01   0.0000000E+00  0.7071068E+00  0.7071068E+00
  0.1358426E+01  0.1358426E+01  0.1358426E+01   0.0000000E+00  0.7071068E+00  0.7071068E+00
 -0.0000000E+00  0.2716853E+01 -0.0000000E+00   0.0000000E+00  0.7071068E+00  0.7071068E+00
 -0.1358426E+01  0.1358426E+01  0.1358426E+01   0.0000000E+00  0.7071068E+00  0.7071068E+00
 WIGNER-SEITZ-PRIMCELL_END
 WIGNER-SEITZ-CONVCELL
           4
 -0.1358426E+01 -0.1358426E+01 -0.1358426E+01  -0.0000000E+00 -0.7071068E+00 -0.7071068E+00
  0.0000000E+00  0.0000000E+00 -0.2716853E+01  -0.0000000E+00 -0.7071068E+00 -0.7071068E+00
  0.1358426E+01 -0.1358426E+01 -0.1358426E+01  -0.0000000E+00 -0.7071068E+00 -0.7071068E+00
 -0.0000000E+00 -0.2716853E+01 -0.0000000E+00  -0.0000000E+00 -0.7071068E+00 -0.7071068E+00
           4
  0.2716853E+01  0.0000000E+00  0.0000000E+00   0.7071068E+00  0.0000000E+00 -0.7071068E+00
  0.1358426E+01 -0.1358426E+01 -0.1358426E+01   0.7071068E+00  0.0000000E+00 -0.7071068E+00
  0.0000000E+00  0.0000000E+00 -0.2716853E+01   0.7071068E+00  0.0000000E+00 -0.7071068E+00
  0.1358426E+01  0.1358426E+01 -0.1358426E+01   0.7071068E+00  0.0000000E+00 -0.7071068E+00
           4
 -0.1358426E+01  0.1358426E+01 -0.1358426E+01  -0.7071068E+00 -0.0000000E+00 -0.7071068E+00
  0.0000000E+00  0.0000000E+00 -0.2716853E+01  -0.7071068E+00 -0.0000000E+00 -0.7071068E+00
 -0.1358426E+01 -0.1358426E+01 -0.1358426E+01  -0.7071068E+00 -0.0000000E+00 -0.7071068E+00
 -0.2716853E+01 -0.0000000E+00 -0.0000000E+00  -0.7071068E+00 -0.0000000E+00 -0.7071068E+00
           4
  0.1358426E+01  0.1358426E+01 -0.1358426E+01  -0.0000000E+00  0.7071068E+00 -0.7071068E+00
  0.0000000E+00  0.0000000E+00 -0.2716853E+01  -0.0000000E+00  0.7071068E+00 -0.7071068E+00
 -0.1358426E+01  0.1358426E+01 -0.1358426E+01  -0.0000000E+00  0.7071068E+00 -0.7071068E+00
  0.0000000E+00  0.2716853E+01  0.0000000E+00  -0.0000000E+00  0.7071068E+00 -0.7071068E+00
           4
 -0.0000000E+00 -0.2716853E+01 -0.0000000E+00   0.7071068E+00 -0.7071068E+00 -0.0000000E+00
  0.1358426E+01 -0.1358426E+01 -0.1358426E+01   0.7071068E+00 -0.7071068E+00 -0.0000000E+00
  0.2716853E+01  0.0000000E+00  0.0000000E+00   0.7071068E+00 -0.7071068E+00 -0.0000000E+00
  0.1358426E+01 -0.1358426E+01  0.1358426E+01   0.7071068E+00 -0.7071068E+00 -0.0000000E+00
           4
 -0.1358426E+01 -0.1358426E+01  0.1358426E+01  -0.7071068E+00 -0.7071068E+00  0.0000000E+00
 -0.2716853E+01 -0.0000000E+00 -0.0000000E+00  -0.7071068E+00 -0.7071068E+00  0.0000000E+00
 -0.1358426E+01 -0.1358426E+01 -0.1358426E+01  -0.7071068E+00 -0.7071068E+00  0.0000000E+00
 -0.0000000E+00 -0.2716853E+01 -0.0000000E+00  -0.7071068E+00 -0.7071068E+00  0.0000000E+00
           4
 -0.0000000E+00 -0.0000000E+00  0.2716853E+01   0.0000000E+00 -0.7071068E+00  0.7071068E+00
 -0.1358426E+01 -0.1358426E+01  0.1358426E+01   0.0000000E+00 -0.7071068E+00  0.7071068E+00
 -0.0000000E+00 -0.2716853E+01 -0.0000000E+00   0.0000000E+00 -0.7071068E+00  0.7071068E+00
  0.1358426E+01 -0.1358426E+01  0.1358426E+01   0.0000000E+00 -0.7071068E+00  0.7071068E+00
           4
  0.2716853E+01  0.0000000E+00  0.0000000E+00   0.7071068E+00  0.7071068E+00 -0.0000000E+00
  0.1358426E+01  0.1358426E+01 -0.1358426E+01   0.7071068E+00  0.7071068E+00 -0.0000000E+00
  0.0000000E+00  0.2716853E+01  0.0000000E+00   0.7071068E+00  0.7071068E+00 -0.0000000E+00
  0.1358426E+01  0.1358426E+01  0.1358426E+01   0.7071068E+00  0.7071068E+00 -0.0000000E+00
           4
  0.0000000E+00  0.0000000E+00  0.2716853E+01   0.7071068E+00  0.0000000E+00  0.7071068E+00
  0.1358426E+01 -0.1358426E+01  0.1358426E+01   0.7071068E+00  0.0000000E+00  0.7071068E+00
  0.2716853E+01  0.0000000E+00  0.0000000E+00   0.7071068E+00  0.0000000E+00  0.7071068E+00
  0.1358426E+01  0.1358426E+01  0.1358426E+01   0.7071068E+00  0.0000000E+00  0.7071068E+00
           4
 -0.1358426E+01  0.1358426E+01  0.1358426E+01  -0.7071068E+00  0.7071068E+00  0.0000000E+00
 -0.0000000E+00  0.2716853E+01 -0.0000000E+00  -0.7071068E+00  0.7071068E+00  0.0000000E+00
 -0.1358426E+01  0.1358426E+01 -0.1358426E+01  -0.7071068E+00  0.7071068E+00  0.0000000E+00
 -0.2716853E+01 -0.0000000E+00 -0.0000000E+00  -0.7071068E+00  0.7071068E+00  0.0000000E+00
           4
 -0.1358426E+01  0.1358426E+01  0.1358426E+01  -0.7071068E+00 -0.0000000E+00  0.7071068E+00
 -0.2716853E+01 -0.0000000E+00 -0.0000000E+00  -0.7071068E+00 -0.0000000E+00  0.7071068E+00
 -0.1358426E+01 -0.1358426E+01  0.1358426E+01  -0.7071068E+00 -0.0000000E+00  0.7071068E+00
 -0.0000000E+00 -0.0000000E+00  0.2716853E+01  -0.7071068E+00 -0.0000000E+00  0.7071068E+00
           4
 -0.0000000E+00 -0.0000000E+00  0.2716853E+01   0.0000000E+00  0.7071068E+00  0.7071068E+00
  0.1358426E+01  0.1358426E+01  0.1358426E+01   0.0000000E+00  0.7071068E+00  0.7071068E+00
 -0.0000000E+00  0.2716853E+01 -0.0000000E+00   0.0000000E+00  0.7071068E+00  0.7071068E+00
 -0.1358426E+01  0.1358426E+01  0.1358426E+01   0.0000000E+00  0.7071068E+00  0.7071068E+00
 WIGNER-SEITZ-CONVCELL_END
 BRILLOUIN-ZONE-PRIMCELL
           6
 -0.1840365E+00  0.0000000E+00 -0.9201824E-01  -0.5773503E+00 -0.5773503E+00 -0.5773503E+00
 -0.9201824E-01 -0.0000000E+00 -0.1840365E+00  -0.5773503E+00 -0.5773503E+00 -0.5773503E+00
  0.3478793E-16 -0.9201824E-01 -0.1840365E+00  -0.5773503E+00 -0.5773503E+00 -0.5773503E+00
 -0.3478793E-16 -0.1840365E+00 -0.9201824E-01  -0.5773503E+00 -0.5773503E+00 -0.5773503E+00
 -0.9201824E-01 -0.1840365E+00 -0.3478793E-16  -0.5773503E+00 -0.5773503E+00 -0.5773503E+00
 -0.1840365E+00 -0.9201824E-01  0.3478793E-16  -0.5773503E+00 -0.5773503E+00 -0.5773503E+00
           4
 -0.9201824E-01 -0.0000000E+00 -0.1840365E+00   0.0000000E+00  0.0000000E+00 -0.1000000E+01
 -0.3478793E-16  0.9201824E-01 -0.1840365E+00   0.0000000E+00  0.0000000E+00 -0.1000000E+01
  0.9201824E-01 -0.0000000E+00 -0.1840365E+00   0.0000000E+00  0.0000000E+00 -0.1000000E+01
  0.3478793E-16 -0.9201824E-01 -0.1840365E+00   0.0000000E+00  0.0000000E+00 -0.1000000E+01
           6
 -0.3478793E-16 -0.1840365E+00 -0.9201824E-01   0.5773503E+00 -0.5773503E+00 -0.5773503E+00
  0.3478793E-16 -0.9201824E-01 -0.1840365E+00   0.5773503E+00 -0.5773503E+00 -0.5773503E+00
  0.9201824E-01 -0.0000000E+00 -0.1840365E+00   0.5773503E+00 -0.5773503E+00 -0.5773503E+00
  0.1840365E+00  0.0000000E+00 -0.9201824E-01   0.5773503E+00 -0.5773503E+00 -0.5773503E+00
  0.1840365E+00 -0.9201824E-01 -0.3478793E-16   0.5773503E+00 -0.5773503E+00 -0.5773503E+00
  0.9201824E-01 -0.1840365E+00  0.3478793E-16   0.5773503E+00 -0.5773503E+00 -0.5773503E+00
           6
 -0.1840365E+00  0.9201824E-01 -0.3478793E-16  -0.5773503E+00  0.5773503E+00 -0.5773503E+00
 -0.9201824E-01  0.1840365E+00  0.3478793E-16  -0.5773503E+00  0.5773503E+00 -0.5773503E+00
  0.3478793E-16  0.1840365E+00 -0.9201824E-01  -0.5773503E+00  0.5773503E+00 -0.5773503E+00
 -0.3478793E-16  0.9201824E-01 -0.1840365E+00  -0.5773503E+00  0.5773503E+00 -0.5773503E+00
 -0.9201824E-01 -0.0000000E+00 -0.1840365E+00  -0.5773503E+00  0.5773503E+00 -0.5773503E+00
 -0.1840365E+00  0.0000000E+00 -0.9201824E-01  -0.5773503E+00  0.5773503E+00 -0.5773503E+00
           4
 -0.9201824E-01 -0.1840365E+00 -0.3478793E-16  -0.0000000E+00 -0.1000000E+01  0.2048719E-15
 -0.3478793E-16 -0.1840365E+00 -0.9201824E-01  -0.0000000E+00 -0.1000000E+01  0.2048719E-15
  0.9201824E-01 -0.1840365E+00  0.3478793E-16  -0.0000000E+00 -0.1000000E+01  0.2048719E-15
  0.3478793E-16 -0.1840365E+00  0.9201824E-01  -0.0000000E+00 -0.1000000E+01  0.2048719E-15
           6
 -0.1840365E+00  0.0000000E+00  0.9201824E-01  -0.5773503E+00 -0.5773503E+00  0.5773503E+00
 -0.1840365E+00 -0.9201824E-01  0.3478793E-16  -0.5773503E+00 -0.5773503E+00  0.5773503E+00
 -0.9201824E-01 -0.1840365E+00 -0.3478793E-16  -0.5773503E+00 -0.5773503E+00  0.5773503E+00
  0.3478793E-16 -0.1840365E+00  0.9201824E-01  -0.5773503E+00 -0.5773503E+00  0.5773503E+00
 -0.3478793E-16 -0.9201824E-01  0.1840365E+00  -0.5773503E+00 -0.5773503E+00  0.5773503E+00
 -0.9201824E-01 -0.0000000E+00  0.1840365E+00  -0.5773503E+00 -0.5773503E+00  0.5773503E+00
           4
 -0.1840365E+00  0.0000000E+00  0.9201824E-01  -0.1000000E+01  0.0000000E+00  0.0000000E+00
 -0.1840365E+00  0.9201824E-01 -0.3478793E-16  -0.1000000E+01  0.0000000E+00  0.0000000E+00
 -0.1840365E+00  0.0000000E+00 -0.9201824E-01  -0.1000000E+01  0.0000000E+00  0.0000000E+00
 -0.1840365E+00 -0.9201824E-01  0.3478793E-16  -0.1000000E+01  0.0000000E+00  0.0000000E+00
           6
  0.9201824E-01  0.1840365E+00 -0.3478793E-16   0.5773503E+00  0.5773503E+00 -0.5773503E+00
  0.1840365E+00  0.9201824E-01  0.3478793E-16   0.5773503E+00  0.5773503E+00 -0.5773503E+00
  0.1840365E+00  0.0000000E+00 -0.9201824E-01   0.5773503E+00  0.5773503E+00 -0.5773503E+00
  0.9201824E-01 -0.0000000E+00 -0.1840365E+00   0.5773503E+00  0.5773503E+00 -0.5773503E+00
 -0.3478793E-16  0.9201824E-01 -0.1840365E+00   0.5773503E+00  0.5773503E+00 -0.5773503E+00
  0.3478793E-16  0.1840365E+00 -0.9201824E-01   0.5773503E+00  0.5773503E+00 -0.5773503E+00
           6
  0.3478793E-16 -0.1840365E+00  0.9201824E-01   0.5773503E+00 -0.5773503E+00  0.5773503E+00
  0.9201824E-01 -0.1840365E+00  0.3478793E-16   0.5773503E+00 -0.5773503E+00  0.5773503E+00
  0.1840365E+00 -0.9201824E-01 -0.3478793E-16   0.5773503E+00 -0.5773503E+00  0.5773503E+00
  0.1840365E+00  0.0000000E+00  0.9201824E-01   0.5773503E+00 -0.5773503E+00  0.5773503E+00
  0.9201824E-01 -0.0000000E+00  0.1840365E+00   0.5773503E+00 -0.5773503E+00  0.5773503E+00
 -0.3478793E-16 -0.9201824E-01  0.1840365E+00   0.5773503E+00 -0.5773503E+00  0.5773503E+00
           4
  0.1840365E+00 -0.9201824E-01 -0.3478793E-16   0.1000000E+01 -0.0000000E+00 -0.0000000E+00
  0.1840365E+00  0.0000000E+00 -0.9201824E-01   0.1000000E+01 -0.0000000E+00 -0.0000000E+00
  0.1840365E+00  0.9201824E-01  0.3478793E-16   0.1000000E+01 -0.0000000E+00 -0.0000000E+00
  0.1840365E+00  0.0000000E+00  0.9201824E-01   0.1000000E+01 -0.0000000E+00 -0.0000000E+00
           6
 -0.9201824E-01 -0.0000000E+00  0.1840365E+00  -0.5773503E+00  0.5773503E+00  0.5773503E+00
  0.3478793E-16  0.9201824E-01  0.1840365E+00  -0.5773503E+00  0.5773503E+00  0.5773503E+00
 -0.3478793E-16  0.1840365E+00  0.9201824E-01  -0.5773503E+00  0.5773503E+00  0.5773503E+00
 -0.9201824E-01  0.1840365E+00  0.3478793E-16  -0.5773503E+00  0.5773503E+00  0.5773503E+00
 -0.1840365E+00  0.9201824E-01 -0.3478793E-16  -0.5773503E+00  0.5773503E+00  0.5773503E+00
 -0.1840365E+00  0.0000000E+00  0.9201824E-01  -0.5773503E+00  0.5773503E+00  0.5773503E+00
           4
 -0.3478793E-16  0.1840365E+00  0.9201824E-01   0.0000000E+00  0.1000000E+01  0.2048719E-15
  0.9201824E-01  0.1840365E+00 -0.3478793E-16   0.0000000E+00  0.1000000E+01  0.2048719E-15
  0.3478793E-16  0.1840365E+00 -0.9201824E-01   0.0000000E+00  0.1000000E+01  0.2048719E-15
 -0.9201824E-01  0.1840365E+00  0.3478793E-16   0.0000000E+00  0.1000000E+01  0.2048719E-15
           4
 -0.3478793E-16 -0.9201824E-01  0.1840365E+00  -0.0000000E+00 -0.0000000E+00  0.1000000E+01
  0.9201824E-01 -0.0000000E+00  0.1840365E+00  -0.0000000E+00 -0.0000000E+00  0.1000000E+01
  0.3478793E-16  0.9201824E-01  0.1840365E+00  -0.0000000E+00 -0.0000000E+00  0.1000000E+01
 -0.9201824E-01 -0.0000000E+00  0.1840365E+00  -0.0000000E+00 -0.0000000E+00  0.1000000E+01
           6
  0.3478793E-16  0.9201824E-01  0.1840365E+00   0.5773503E+00  0.5773503E+00  0.5773503E+00
  0.9201824E-01 -0.0000000E+00  0.1840365E+00   0.5773503E+00  0.5773503E+00  0.5773503E+00
  0.1840365E+00  0.0000000E+00  0.9201824E-01   0.5773503E+00  0.5773503E+00  0.5773503E+00
  0.1840365E+00  0.9201824E-01  0.3478793E-16   0.5773503E+00  0.5773503E+00  0.5773503E+00
  0.9201824E-01  0.1840365E+00 -0.3478793E-16   0.5773503E+00  0.5773503E+00  0.5773503E+00
 -0.3478793E-16  0.1840365E+00  0.9201824E-01   0.5773503E+00  0.5773503E+00  0.5773503E+00
 BRILLOUIN-ZONE-PRIMCELL_END
 BRILLOUIN-ZONE-CONVCELL
           6
 -0.1840365E+00  0.0000000E+00 -0.9201824E-01  -0.5773503E+00 -0.5773503E+00 -0.5773503E+00
 -0.9201824E-01 -0.0000000E+00 -0.1840365E+00  -0.5773503E+00 -0.5773503E+00 -0.5773503E+00
  0.3478793E-16 -0.9201824E-01 -0.1840365E+00  -0.5773503E+00 -0.5773503E+00 -0.5773503E+00
 -0.3478793E-16 -0.1840365E+00 -0.9201824E-01  -0.5773503E+00 -0.5773503E+00 -0.5773503E+00
 -0.9201824E-01 -0.1840365E+00 -0.3478793E-16  -0.5773503E+00 -0.5773503E+00 -0.5773503E+00
 -0.1840365E+00 -0.9201824E-01  0.3478793E-16  -0.5773503E+00 -0.5773503E+00 -0.5773503E+00
           4
 -0.9201824E-01 -0.0000000E+00 -0.1840365E+00   0.0000000E+00  0.0000000E+00 -0.1000000E+01
 -0.3478793E-16  0.9201824E-01 -0.1840365E+00   0.0000000E+00  0.0000000E+00 -0.1000000E+01
  0.9201824E-01 -0.0000000E+00 -0.1840365E+00   0.0000000E+00  0.0000000E+00 -0.1000000E+01
  0.3478793E-16 -0.9201824E-01 -0.1840365E+00   0.0000000E+00  0.0000000E+00 -0.1000000E+01
           6
 -0.3478793E-16 -0.1840365E+00 -0.9201824E-01   0.5773503E+00 -0.5773503E+00 -0.5773503E+00
  0.3478793E-16 -0.9201824E-01 -0.1840365E+00   0.5773503E+00 -0.5773503E+00 -0.5773503E+00
  0.9201824E-01 -0.0000000E+00 -0.1840365E+00   0.5773503E+00 -0.5773503E+00 -0.5773503E+00
  0.1840365E+00  0.0000000E+00 -0.9201824E-01   0.5773503E+00 -0.5773503E+00 -0.5773503E+00
  0.1840365E+00 -0.9201824E-01 -0.3478793E-16   0.5773503E+00 -0.5773503E+00 -0.5773503E+00
  0.9201824E-01 -0.1840365E+00  0.3478793E-16   0.5773503E+00 -0.5773503E+00 -0.5773503E+00
           6
 -0.1840365E+00  0.9201824E-01 -0.3478793E-16  -0.5773503E+00  0.5773503E+00 -0.5773503E+00
 -0.9201824E-01  0.1840365E+00  0.3478793E-16  -0.5773503E+00  0.5773503E+00 -0.5773503E+00
  0.3478793E-16  0.1840365E+00 -0.9201824E-01  -0.5773503E+00  0.5773503E+00 -0.5773503E+00
 -0.3478793E-16  0.9201824E-01 -0.1840365E+00  -0.5773503E+00  0.5773503E+00 -0.5773503E+00
 -0.9201824E-01 -0.0000000E+00 -0.1840365E+00  -0.5773503E+00  0.5773503E+00 -0.5773503E+00
 -0.1840365E+00  0.0000000E+00 -0.9201824E-01  -0.5773503E+00  0.5773503E+00 -0.5773503E+00
           4
 -0.9201824E-01 -0.1840365E+00 -0.3478793E-16  -0.0000000E+00 -0.1000000E+01  0.2048719E-15
 -0.3478793E-16 -0.1840365E+00 -0.9201824E-01  -0.0000000E+00 -0.1000000E+01  0.2048719E-15
  0.9201824E-01 -0.1840365E+00  0.3478793E-16  -0.0000000E+00 -0.1000000E+01  0.2048719E-15
  0.3478793E-16 -0.1840365E+00  0.9201824E-01  -0.0000000E+00 -0.1000000E+01  0.2048719E-15
           6
 -0.1840365E+00  0.0000000E+00  0.9201824E-01  -0.5773503E+00 -0.5773503E+00  0.5773503E+00
 -0.1840365E+00 -0.9201824E-01  0.3478793E-16  -0.5773503E+00 -0.5773503E+00  0.5773503E+00
 -0.9201824E-01 -0.1840365E+00 -0.3478793E-16  -0.5773503E+00 -0.5773503E+00  0.5773503E+00
  0.3478793E-16 -0.1840365E+00  0.9201824E-01  -0.5773503E+00 -0.5773503E+00  0.5773503E+00
 -0.3478793E-16 -0.9201824E-01  0.1840365E+00  -0.5773503E+00 -0.5773503E+00  0.5773503E+00
 -0.9201824E-01 -0.0000000E+00  0.1840365E+00  -0.5773503E+00 -0.5773503E+00  0.5773503E+00
           4
 -0.1840365E+00  0.0000000E+00  0.9201824E-01  -0.1000000E+01  0.0000000E+00  0.0000000E+00
 -0.1840365E+00  0.9201824E-01 -0.3478793E-16  -0.1000000E+01  0.0000000E+00  0.0000000E+00
 -0.1840365E+00  0.0000000E+00 -0.9201824E-01  -0.1000000E+01  0.0000000E+00  0.0000000E+00
 -0.1840365E+00 -0.9201824E-01  0.3478793E-16  -0.1000000E+01  0.0000000E+00  0.0000000E+00
           6
  0.9201824E-01  0.1840365E+00 -0.3478793E-16   0.5773503E+00  0.5773503E+00 -0.5773503E+00
  0.1840365E+00  0.9201824E-01  0.3478793E-16   0.5773503E+00  0.5773503E+00 -0.5773503E+00
  0.1840365E+00  0.0000000E+00 -0.9201824E-01   0.5773503E+00  0.5773503E+00 -0.5773503E+00
  0.9201824E-01 -0.0000000E+00 -0.1840365E+00   0.5773503E+00  0.5773503E+00 -0.5773503E+00
 -0.3478793E-16  0.9201824E-01 -0.1840365E+00   0.5773503E+00  0.5773503E+00 -0.5773503E+00
  0.3478793E-16  0.1840365E+00 -0.9201824E-01   0.5773503E+00  0.5773503E+00 -0.5773503E+00
           6
  0.3478793E-16 -0.1840365E+00  0.9201824E-01   0.5773503E+00 -0.5773503E+00  0.5773503E+00
  0.9201824E-01 -0.1840365E+00  0.3478793E-16   0.5773503E+00 -0.5773503E+00  0.5773503E+00
  0.1840365E+00 -0.9201824E-01 -0.3478793E-16   0.5773503E+00 -0.5773503E+00  0.5773503E+00
  0.1840365E+00  0.0000000E+00  0.9201824E-01   0.5773503E+00 -0.5773503E+00  0.5773503E+00
  0.9201824E-01 -0.0000000E+00  0.1840365E+00   0.5773503E+00 -0.5773503E+00  0.5773503E+00
 -0.3478793E-16 -0.9201824E-01  0.1840365E+00   0.5773503E+00 -0.5773503E+00  0.5773503E+00
           4
  0.1840365E+00 -0.9201824E-01 -0.3478793E-16   0.1000000E+01 -0.0000000E+00 -0.0000000E+00
  0.1840365E+00  0.0000000E+00 -0.9201824E-01   0.1000000E+01 -0.0000000E+00 -0.0000000E+00
  0.1840365E+00  0.9201824E-01  0.3478793E-16   0.1000000E+01 -0.0000000E+00 -0.0000000E+00
  0.1840365E+00  0.0000000E+00  0.9201824E-01   0.1000000E+01 -0.0000000E+00 -0.0000000E+00
           6
 -0.9201824E-01 -0.0000000E+00  0.1840365E+00  -0.5773503E+00  0.5773503E+00  0.5773503E+00
  0.3478793E-16  0.9201824E-01  0.1840365E+00  -0.5773503E+00  0.5773503E+00  0.5773503E+00
 -0.3478793E-16  0.1840365E+00  0.9201824E-01  -0.5773503E+00  0.5773503E+00  0.5773503E+00
 -0.9201824E-01  0.1840365E+00  0.3478793E-16  -0.5773503E+00  0.5773503E+00  0.5773503E+00
 -0.1840365E+00  0.9201824E-01 -0.3478793E-16  -0.5773503E+00  0.5773503E+00  0.5773503E+00
 -0.1840365E+00  0.0000000E+00  0.9201824E-01  -0.5773503E+00  0.5773503E+00  0.5773503E+00
           4
 -0.3478793E-16  0.1840365E+00  0.9201824E-01   0.0000000E+00  0.1000000E+01  0.2048719E-15
  0.9201824E-01  0.1840365E+00 -0.3478793E-16   0.0000000E+00  0.1000000E+01  0.2048719E-15
  0.3478793E-16  0.1840365E+00 -0.9201824E-01   0.0000000E+00  0.1000000E+01  0.2048719E-15
 -0.9201824E-01  0.1840365E+00  0.3478793E-16   0.0000000E+00  0.1000000E+01  0.2048719E-15
           4
 -0.3478793E-16 -0.9201824E-01  0.1840365E+00  -0.0000000E+00 -0.0000000E+00  0.1000000E+01
  0.9201824E-01 -0.0000000E+00  0.1840365E+00  -0.0000000E+00 -0.0000000E+00  0.1000000E+01
  0.3478793E-16  0.9201824E-01  0.1840365E+00  -0.0000000E+00 -0.0000000E+00  0.1000000E+01
 -0.9201824E-01 -0.0000000E+00  0.1840365E+00  -0.0000000E+00 -0.0000000E+00  0.1000000E+01
           6
  0.3478793E-16  0.9201824E-01  0.1840365E+00   0.5773503E+00  0.5773503E+00  0.5773503E+00
  0.9201824E-01 -0.0000000E+00  0.1840365E+00   0.5773503E+00  0.5773503E+00  0.5773503E+00
  0.1840365E+00  0.0000000E+00  0.9201824E-01   0.5773503E+00  0.5773503E+00  0.5773503E+00
  0.1840365E+00  0.9201824E-01  0.3478793E-16   0.5773503E+00  0.5773503E+00  0.5773503E+00
  0.9201824E-01  0.1840365E+00 -0.3478793E-16   0.5773503E+00  0.5773503E+00  0.5773503E+00
 -0.3478793E-16  0.1840365E+00  0.9201824E-01   0.5773503E+00  0.5773503E+00  0.5773503E+00
 BRILLOUIN-ZONE-CONVCELL_END
 ATOMS
   14    4.0752783280    4.0752783280    4.0752783280   -0.0000000000   -0.0000000000   -0.0000000000
   14    2.7168522190    2.7168522190    2.7168522190   -0.0000000000   -0.0000000000   -0.0000000000
 FRAMES
1      0.0000000000    0.0000000000    0.0000000000      0.0000000000    2.7168527450    2.7168527450
1      0.0000000000    0.0000000000    0.0000000000      2.7168527450    0.0000000000    2.7168527450
1      0.0000000000    0.0000000000    0.0000000000      2.7168527450    2.7168527450    0.0000000000
1      2.7168527450    2.7168527450    0.0000000000      2.7168527450    5.4337054900    2.7168527450
1      2.7168527450    2.7168527450    0.0000000000      5.4337054900    2.7168527450    2.7168527450
1      2.7168527450    0.0000000000    2.7168527450      2.7168527450    2.7168527450    5.4337054900
1      2.7168527450    0.0000000000    2.7168527450      5.4337054900    2.7168527450    2.7168527450
1      5.4337054900    2.7168527450    2.7168527450      5.4337054900    5.4337054900    5.4337054900
1      0.0000000000    2.7168527450    2.7168527450      2.7168527450    2.7168527450    5.4337054900
1      0.0000000000    2.7168527450    2.7168527450      2.7168527450    5.4337054900    2.7168527450
1      2.7168527450    5.4337054900    2.7168527450      5.4337054900    5.4337054900    5.4337054900
1      2.7168527450    2.7168527450    5.4337054900      5.4337054900    5.4337054900    5.4337054900
