 INFO
nunit      1    1    1
unit   cell
celltype   primcell
shape   parapipedal
 END_INFO
 DIM-GROUP
           3           1
 PRIMVEC
    7.8247163660    0.0000000000    0.0000000000
    3.9123581830    6.7763999910    0.0000000000
    1.9561790920    1.1294039110    3.1944248070
 CONVVEC
    7.8247163660    0.0000000000    0.0000000000
    3.9123581830    6.7763999910    0.0000000000
    1.9561790920    1.1294039110    3.1944248070
 PRIMCOORD
           8           1
 25      5.8683717950     3.3568321420     2.4070161730    -0.0000079700    -0.0000021700     0.0000044900
 25      7.8245505790     6.7450186270     2.4070211730    -0.0000078000     0.0000022700     0.0000028100
 25      9.7807304770     3.3568306330     2.4070164420    -0.0000081300    -0.0000017100     0.0000044200
 25     11.7369104980     6.7450187700     2.4070200470    -0.0000084300     0.0000022200     0.0000032200
 16      0.0001650590     0.0313801990    -0.0112006690     0.0000080800    -0.0000001700    -0.0000037300
 16      1.9563438090     3.4195759010    -0.0111989150     0.0000080500    -0.0000001800    -0.0000037000
 16      3.9125233160     0.0313799530    -0.0112006270     0.0000081300    -0.0000000700    -0.0000038000
 16      5.8687026640     3.4195754770    -0.0111992030     0.0000080700    -0.0000001800    -0.0000037200
 CONVCOORD
           8           1
 25      5.8683717950     3.3568321420     2.4070161730
 25      7.8245505790     6.7450186270     2.4070211730
 25      9.7807304770     3.3568306330     2.4070164420
 25     11.7369104980     6.7450187700     2.4070200470
 16      0.0001650590     0.0313801990    -0.0112006690
 16      1.9563438090     3.4195759010    -0.0111989150
 16      3.9125233160     0.0313799530    -0.0112006270
 16      5.8687026640     3.4195754770    -0.0111992030
 RECIP-PRIMVEC
    0.1278001595   -0.0737854909   -0.0521741434

    0.0000000000    0.1475709818   -0.0521744145

    0.0000000000    0.0000000000    0.3130454027

 RECIP-CONVVEC
    0.1278001595   -0.0737854909   -0.0521741434

    0.0000000000    0.1475709818   -0.0521744145

    0.0000000000    0.0000000000    0.3130454027

 WIGNER-SEITZ-PRIMCELL
           4
  0.1956178E+01 -0.3388201E+01 -0.2395817E+01   0.5000001E+00 -0.2886761E+00 -0.8164962E+00
  0.1956178E+01  0.1129392E+01 -0.3993033E+01   0.5000001E+00 -0.2886761E+00 -0.8164962E+00
  0.1956180E+01  0.1129393E+01 -0.3993032E+01   0.5000001E+00 -0.2886761E+00 -0.8164962E+00
  0.1956180E+01 -0.3388199E+01 -0.2395816E+01   0.5000001E+00 -0.2886761E+00 -0.8164962E+00
           6
  0.3354575E-05 -0.4517599E+01 -0.7986046E+00  -0.5000001E+00 -0.2886761E+00 -0.8164962E+00
 -0.3912357E+01 -0.2258796E+01  0.7986083E+00  -0.5000001E+00 -0.2886761E+00 -0.8164962E+00
 -0.3912357E+01  0.2258797E+01 -0.7986076E+00  -0.5000001E+00 -0.2886761E+00 -0.8164962E+00
 -0.1956182E+01  0.3388195E+01 -0.2395820E+01  -0.5000001E+00 -0.2886761E+00 -0.8164962E+00
  0.1956178E+01  0.1129392E+01 -0.3993033E+01  -0.5000001E+00 -0.2886761E+00 -0.8164962E+00
  0.1956178E+01 -0.3388201E+01 -0.2395817E+01  -0.5000001E+00 -0.2886761E+00 -0.8164962E+00
           4
  0.1956180E+01  0.1129393E+01 -0.3993032E+01  -0.3654423E-09  0.5773497E+00 -0.8164970E+00
  0.1956178E+01  0.1129392E+01 -0.3993033E+01  -0.3654423E-09  0.5773497E+00 -0.8164970E+00
 -0.1956182E+01  0.3388195E+01 -0.2395820E+01  -0.3654423E-09  0.5773497E+00 -0.8164970E+00
 -0.1956180E+01  0.3388199E+01 -0.2395817E+01  -0.3654423E-09  0.5773497E+00 -0.8164970E+00
           6
  0.1956180E+01 -0.3388199E+01  0.2395817E+01   0.5000002E+00 -0.8660253E+00  0.8838881E-10
  0.1956178E+01 -0.3388201E+01  0.2395816E+01   0.5000002E+00 -0.8660253E+00  0.8838881E-10
  0.3354575E-05 -0.4517599E+01 -0.7986046E+00   0.5000002E+00 -0.8660253E+00  0.8838881E-10
  0.1956178E+01 -0.3388201E+01 -0.2395817E+01   0.5000002E+00 -0.8660253E+00  0.8838881E-10
  0.1956180E+01 -0.3388199E+01 -0.2395816E+01   0.5000002E+00 -0.8660253E+00  0.8838881E-10
  0.3912355E+01 -0.2258801E+01  0.7986046E+00   0.5000002E+00 -0.8660253E+00  0.8838881E-10
           6
  0.1956180E+01 -0.3388199E+01 -0.2395816E+01   0.8660255E+00 -0.1666672E+00 -0.4714042E+00
  0.1956180E+01  0.1129393E+01 -0.3993032E+01   0.8660255E+00 -0.1666672E+00 -0.4714042E+00
  0.1956182E+01  0.1129397E+01 -0.3993029E+01   0.8660255E+00 -0.1666672E+00 -0.4714042E+00
  0.3912357E+01  0.2258796E+01 -0.7986083E+00   0.8660255E+00 -0.1666672E+00 -0.4714042E+00
  0.3912357E+01 -0.2258797E+01  0.7986076E+00   0.8660255E+00 -0.1666672E+00 -0.4714042E+00
  0.3912355E+01 -0.2258801E+01  0.7986046E+00   0.8660255E+00 -0.1666672E+00 -0.4714042E+00
           4
 -0.3912355E+01  0.2258801E+01 -0.7986046E+00  -0.6708208E+00  0.6454968E+00 -0.3651483E+00
 -0.1956180E+01  0.3388199E+01 -0.2395817E+01  -0.6708208E+00  0.6454968E+00 -0.3651483E+00
 -0.1956182E+01  0.3388195E+01 -0.2395820E+01  -0.6708208E+00  0.6454968E+00 -0.3651483E+00
 -0.3912357E+01  0.2258797E+01 -0.7986076E+00  -0.6708208E+00  0.6454968E+00 -0.3651483E+00
           6
 -0.1956182E+01 -0.1129397E+01  0.3993029E+01  -0.8660255E+00  0.1666672E+00  0.4714042E+00
 -0.1956180E+01 -0.1129393E+01  0.3993032E+01  -0.8660255E+00  0.1666672E+00  0.4714042E+00
 -0.1956180E+01  0.3388199E+01  0.2395816E+01  -0.8660255E+00  0.1666672E+00  0.4714042E+00
 -0.3912355E+01  0.2258801E+01 -0.7986046E+00  -0.8660255E+00  0.1666672E+00  0.4714042E+00
 -0.3912357E+01  0.2258797E+01 -0.7986076E+00  -0.8660255E+00  0.1666672E+00  0.4714042E+00
 -0.3912357E+01 -0.2258796E+01  0.7986083E+00  -0.8660255E+00  0.1666672E+00  0.4714042E+00
           4
 -0.3912357E+01 -0.2258796E+01  0.7986083E+00  -0.2886754E+00 -0.8333332E+00  0.4714046E+00
  0.3354575E-05 -0.4517599E+01 -0.7986046E+00  -0.2886754E+00 -0.8333332E+00  0.4714046E+00
  0.1956178E+01 -0.3388201E+01  0.2395816E+01  -0.2886754E+00 -0.8333332E+00  0.4714046E+00
 -0.1956182E+01 -0.1129397E+01  0.3993029E+01  -0.2886754E+00 -0.8333332E+00  0.4714046E+00
           6
 -0.3354575E-05  0.4517599E+01  0.7986046E+00  -0.5000002E+00  0.8660253E+00 -0.4855339E-09
 -0.1956178E+01  0.3388201E+01 -0.2395816E+01  -0.5000002E+00  0.8660253E+00 -0.4855339E-09
 -0.1956180E+01  0.3388199E+01 -0.2395817E+01  -0.5000002E+00  0.8660253E+00 -0.4855339E-09
 -0.3912355E+01  0.2258801E+01 -0.7986046E+00  -0.5000002E+00  0.8660253E+00 -0.4855339E-09
 -0.1956180E+01  0.3388199E+01  0.2395816E+01  -0.5000002E+00  0.8660253E+00 -0.4855339E-09
 -0.1956178E+01  0.3388201E+01  0.2395817E+01  -0.5000002E+00  0.8660253E+00 -0.4855339E-09
           4
 -0.3354575E-05  0.4517599E+01  0.7986046E+00   0.2886754E+00  0.8333332E+00 -0.4714046E+00
  0.3912357E+01  0.2258796E+01 -0.7986083E+00   0.2886754E+00  0.8333332E+00 -0.4714046E+00
  0.1956182E+01  0.1129397E+01 -0.3993029E+01   0.2886754E+00  0.8333332E+00 -0.4714046E+00
 -0.1956178E+01  0.3388201E+01 -0.2395816E+01   0.2886754E+00  0.8333332E+00 -0.4714046E+00
           4
 -0.1956180E+01 -0.1129393E+01  0.3993032E+01  -0.3654423E-09 -0.5773497E+00  0.8164970E+00
 -0.1956182E+01 -0.1129397E+01  0.3993029E+01  -0.3654423E-09 -0.5773497E+00  0.8164970E+00
  0.1956178E+01 -0.3388201E+01  0.2395816E+01  -0.3654423E-09 -0.5773497E+00  0.8164970E+00
  0.1956180E+01 -0.3388199E+01  0.2395817E+01  -0.3654423E-09 -0.5773497E+00  0.8164970E+00
           4
  0.1956180E+01 -0.3388199E+01  0.2395817E+01   0.6708208E+00 -0.6454968E+00  0.3651483E+00
  0.3912355E+01 -0.2258801E+01  0.7986046E+00   0.6708208E+00 -0.6454968E+00  0.3651483E+00
  0.3912357E+01 -0.2258797E+01  0.7986076E+00   0.6708208E+00 -0.6454968E+00  0.3651483E+00
  0.1956182E+01 -0.3388195E+01  0.2395820E+01   0.6708208E+00 -0.6454968E+00  0.3651483E+00
           6
  0.3912357E+01 -0.2258797E+01  0.7986076E+00   0.5000001E+00  0.2886761E+00  0.8164962E+00
  0.3912357E+01  0.2258796E+01 -0.7986083E+00   0.5000001E+00  0.2886761E+00  0.8164962E+00
 -0.3354575E-05  0.4517599E+01  0.7986046E+00   0.5000001E+00  0.2886761E+00  0.8164962E+00
 -0.1956178E+01  0.3388201E+01  0.2395817E+01   0.5000001E+00  0.2886761E+00  0.8164962E+00
 -0.1956178E+01 -0.1129392E+01  0.3993033E+01   0.5000001E+00  0.2886761E+00  0.8164962E+00
  0.1956182E+01 -0.3388195E+01  0.2395820E+01   0.5000001E+00  0.2886761E+00  0.8164962E+00
           4
 -0.1956178E+01 -0.1129392E+01  0.3993033E+01  -0.5000001E+00  0.2886761E+00  0.8164962E+00
 -0.1956178E+01  0.3388201E+01  0.2395817E+01  -0.5000001E+00  0.2886761E+00  0.8164962E+00
 -0.1956180E+01  0.3388199E+01  0.2395816E+01  -0.5000001E+00  0.2886761E+00  0.8164962E+00
 -0.1956180E+01 -0.1129393E+01  0.3993032E+01  -0.5000001E+00  0.2886761E+00  0.8164962E+00
 WIGNER-SEITZ-PRIMCELL_END
 WIGNER-SEITZ-CONVCELL
           4
  0.1956178E+01 -0.3388201E+01 -0.2395817E+01   0.5000001E+00 -0.2886761E+00 -0.8164962E+00
  0.1956178E+01  0.1129392E+01 -0.3993033E+01   0.5000001E+00 -0.2886761E+00 -0.8164962E+00
  0.1956180E+01  0.1129393E+01 -0.3993032E+01   0.5000001E+00 -0.2886761E+00 -0.8164962E+00
  0.1956180E+01 -0.3388199E+01 -0.2395816E+01   0.5000001E+00 -0.2886761E+00 -0.8164962E+00
           6
  0.3354575E-05 -0.4517599E+01 -0.7986046E+00  -0.5000001E+00 -0.2886761E+00 -0.8164962E+00
 -0.3912357E+01 -0.2258796E+01  0.7986083E+00  -0.5000001E+00 -0.2886761E+00 -0.8164962E+00
 -0.3912357E+01  0.2258797E+01 -0.7986076E+00  -0.5000001E+00 -0.2886761E+00 -0.8164962E+00
 -0.1956182E+01  0.3388195E+01 -0.2395820E+01  -0.5000001E+00 -0.2886761E+00 -0.8164962E+00
  0.1956178E+01  0.1129392E+01 -0.3993033E+01  -0.5000001E+00 -0.2886761E+00 -0.8164962E+00
  0.1956178E+01 -0.3388201E+01 -0.2395817E+01  -0.5000001E+00 -0.2886761E+00 -0.8164962E+00
           4
  0.1956180E+01  0.1129393E+01 -0.3993032E+01  -0.3654423E-09  0.5773497E+00 -0.8164970E+00
  0.1956178E+01  0.1129392E+01 -0.3993033E+01  -0.3654423E-09  0.5773497E+00 -0.8164970E+00
 -0.1956182E+01  0.3388195E+01 -0.2395820E+01  -0.3654423E-09  0.5773497E+00 -0.8164970E+00
 -0.1956180E+01  0.3388199E+01 -0.2395817E+01  -0.3654423E-09  0.5773497E+00 -0.8164970E+00
           6
  0.1956180E+01 -0.3388199E+01  0.2395817E+01   0.5000002E+00 -0.8660253E+00  0.8838881E-10
  0.1956178E+01 -0.3388201E+01  0.2395816E+01   0.5000002E+00 -0.8660253E+00  0.8838881E-10
  0.3354575E-05 -0.4517599E+01 -0.7986046E+00   0.5000002E+00 -0.8660253E+00  0.8838881E-10
  0.1956178E+01 -0.3388201E+01 -0.2395817E+01   0.5000002E+00 -0.8660253E+00  0.8838881E-10
  0.1956180E+01 -0.3388199E+01 -0.2395816E+01   0.5000002E+00 -0.8660253E+00  0.8838881E-10
  0.3912355E+01 -0.2258801E+01  0.7986046E+00   0.5000002E+00 -0.8660253E+00  0.8838881E-10
           6
  0.1956180E+01 -0.3388199E+01 -0.2395816E+01   0.8660255E+00 -0.1666672E+00 -0.4714042E+00
  0.1956180E+01  0.1129393E+01 -0.3993032E+01   0.8660255E+00 -0.1666672E+00 -0.4714042E+00
  0.1956182E+01  0.1129397E+01 -0.3993029E+01   0.8660255E+00 -0.1666672E+00 -0.4714042E+00
  0.3912357E+01  0.2258796E+01 -0.7986083E+00   0.8660255E+00 -0.1666672E+00 -0.4714042E+00
  0.3912357E+01 -0.2258797E+01  0.7986076E+00   0.8660255E+00 -0.1666672E+00 -0.4714042E+00
  0.3912355E+01 -0.2258801E+01  0.7986046E+00   0.8660255E+00 -0.1666672E+00 -0.4714042E+00
           4
 -0.3912355E+01  0.2258801E+01 -0.7986046E+00  -0.6708208E+00  0.6454968E+00 -0.3651483E+00
 -0.1956180E+01  0.3388199E+01 -0.2395817E+01  -0.6708208E+00  0.6454968E+00 -0.3651483E+00
 -0.1956182E+01  0.3388195E+01 -0.2395820E+01  -0.6708208E+00  0.6454968E+00 -0.3651483E+00
 -0.3912357E+01  0.2258797E+01 -0.7986076E+00  -0.6708208E+00  0.6454968E+00 -0.3651483E+00
           6
 -0.1956182E+01 -0.1129397E+01  0.3993029E+01  -0.8660255E+00  0.1666672E+00  0.4714042E+00
 -0.1956180E+01 -0.1129393E+01  0.3993032E+01  -0.8660255E+00  0.1666672E+00  0.4714042E+00
 -0.1956180E+01  0.3388199E+01  0.2395816E+01  -0.8660255E+00  0.1666672E+00  0.4714042E+00
 -0.3912355E+01  0.2258801E+01 -0.7986046E+00  -0.8660255E+00  0.1666672E+00  0.4714042E+00
 -0.3912357E+01  0.2258797E+01 -0.7986076E+00  -0.8660255E+00  0.1666672E+00  0.4714042E+00
 -0.3912357E+01 -0.2258796E+01  0.7986083E+00  -0.8660255E+00  0.1666672E+00  0.4714042E+00
           4
 -0.3912357E+01 -0.2258796E+01  0.7986083E+00  -0.2886754E+00 -0.8333332E+00  0.4714046E+00
  0.3354575E-05 -0.4517599E+01 -0.7986046E+00  -0.2886754E+00 -0.8333332E+00  0.4714046E+00
  0.1956178E+01 -0.3388201E+01  0.2395816E+01  -0.2886754E+00 -0.8333332E+00  0.4714046E+00
 -0.1956182E+01 -0.1129397E+01  0.3993029E+01  -0.2886754E+00 -0.8333332E+00  0.4714046E+00
           6
 -0.3354575E-05  0.4517599E+01  0.7986046E+00  -0.5000002E+00  0.8660253E+00 -0.4855339E-09
 -0.1956178E+01  0.3388201E+01 -0.2395816E+01  -0.5000002E+00  0.8660253E+00 -0.4855339E-09
 -0.1956180E+01  0.3388199E+01 -0.2395817E+01  -0.5000002E+00  0.8660253E+00 -0.4855339E-09
 -0.3912355E+01  0.2258801E+01 -0.7986046E+00  -0.5000002E+00  0.8660253E+00 -0.4855339E-09
 -0.1956180E+01  0.3388199E+01  0.2395816E+01  -0.5000002E+00  0.8660253E+00 -0.4855339E-09
 -0.1956178E+01  0.3388201E+01  0.2395817E+01  -0.5000002E+00  0.8660253E+00 -0.4855339E-09
           4
 -0.3354575E-05  0.4517599E+01  0.7986046E+00   0.2886754E+00  0.8333332E+00 -0.4714046E+00
  0.3912357E+01  0.2258796E+01 -0.7986083E+00   0.2886754E+00  0.8333332E+00 -0.4714046E+00
  0.1956182E+01  0.1129397E+01 -0.3993029E+01   0.2886754E+00  0.8333332E+00 -0.4714046E+00
 -0.1956178E+01  0.3388201E+01 -0.2395816E+01   0.2886754E+00  0.8333332E+00 -0.4714046E+00
           4
 -0.1956180E+01 -0.1129393E+01  0.3993032E+01  -0.3654423E-09 -0.5773497E+00  0.8164970E+00
 -0.1956182E+01 -0.1129397E+01  0.3993029E+01  -0.3654423E-09 -0.5773497E+00  0.8164970E+00
  0.1956178E+01 -0.3388201E+01  0.2395816E+01  -0.3654423E-09 -0.5773497E+00  0.8164970E+00
  0.1956180E+01 -0.3388199E+01  0.2395817E+01  -0.3654423E-09 -0.5773497E+00  0.8164970E+00
           4
  0.1956180E+01 -0.3388199E+01  0.2395817E+01   0.6708208E+00 -0.6454968E+00  0.3651483E+00
  0.3912355E+01 -0.2258801E+01  0.7986046E+00   0.6708208E+00 -0.6454968E+00  0.3651483E+00
  0.3912357E+01 -0.2258797E+01  0.7986076E+00   0.6708208E+00 -0.6454968E+00  0.3651483E+00
  0.1956182E+01 -0.3388195E+01  0.2395820E+01   0.6708208E+00 -0.6454968E+00  0.3651483E+00
           6
  0.3912357E+01 -0.2258797E+01  0.7986076E+00   0.5000001E+00  0.2886761E+00  0.8164962E+00
  0.3912357E+01  0.2258796E+01 -0.7986083E+00   0.5000001E+00  0.2886761E+00  0.8164962E+00
 -0.3354575E-05  0.4517599E+01  0.7986046E+00   0.5000001E+00  0.2886761E+00  0.8164962E+00
 -0.1956178E+01  0.3388201E+01  0.2395817E+01   0.5000001E+00  0.2886761E+00  0.8164962E+00
 -0.1956178E+01 -0.1129392E+01  0.3993033E+01   0.5000001E+00  0.2886761E+00  0.8164962E+00
  0.1956182E+01 -0.3388195E+01  0.2395820E+01   0.5000001E+00  0.2886761E+00  0.8164962E+00
           4
 -0.1956178E+01 -0.1129392E+01  0.3993033E+01  -0.5000001E+00  0.2886761E+00  0.8164962E+00
 -0.1956178E+01  0.3388201E+01  0.2395817E+01  -0.5000001E+00  0.2886761E+00  0.8164962E+00
 -0.1956180E+01  0.3388199E+01  0.2395816E+01  -0.5000001E+00  0.2886761E+00  0.8164962E+00
 -0.1956180E+01 -0.1129393E+01  0.3993032E+01  -0.5000001E+00  0.2886761E+00  0.8164962E+00
 WIGNER-SEITZ-CONVCELL_END
 BRILLOUIN-ZONE-PRIMCELL
           4
 -0.1437752E+00 -0.4611588E-01 -0.5217426E-01  -0.8164966E+00 -0.4714047E+00 -0.3333330E+00
 -0.1118251E+00 -0.1014549E+00 -0.5217426E-01  -0.8164966E+00 -0.4714047E+00 -0.3333330E+00
 -0.1118251E+00 -0.1014551E+00 -0.5217403E-01  -0.8164966E+00 -0.4714047E+00 -0.3333330E+00
 -0.1437752E+00 -0.4611604E-01 -0.5217403E-01  -0.8164966E+00 -0.4714047E+00 -0.3333330E+00
           6
  0.1597502E-01  0.1199015E+00  0.1043482E+00  -0.8164966E+00  0.4714047E+00  0.3333330E+00
 -0.1118251E+00  0.4611587E-01 -0.1043484E+00  -0.8164966E+00  0.4714047E+00  0.3333330E+00
 -0.1437752E+00 -0.4611588E-01 -0.5217426E-01  -0.8164966E+00  0.4714047E+00  0.3333330E+00
 -0.1437752E+00 -0.4611604E-01 -0.5217403E-01  -0.8164966E+00  0.4714047E+00  0.3333330E+00
 -0.1597503E-01  0.2766963E-01  0.1565226E+00  -0.8164966E+00  0.4714047E+00  0.3333330E+00
  0.1597502E-01  0.1199014E+00  0.1043484E+00  -0.8164966E+00  0.4714047E+00  0.3333330E+00
           3
 -0.1118251E+00 -0.1014551E+00 -0.5217403E-01  -0.4264014E+00 -0.7385493E+00 -0.5222324E+00
 -0.1597502E-01 -0.1199014E+00 -0.1043484E+00  -0.4264014E+00 -0.7385493E+00 -0.5222324E+00
 -0.1597502E-01 -0.1199015E+00 -0.1043482E+00  -0.4264014E+00 -0.7385493E+00 -0.5222324E+00
           6
 -0.1118251E+00  0.4611587E-01 -0.1043484E+00  -0.4999999E+00 -0.2886752E+00 -0.8164966E+00
 -0.1597502E-01  0.2766945E-01 -0.1565226E+00  -0.4999999E+00 -0.2886752E+00 -0.8164966E+00
  0.1597502E-01 -0.2766961E-01 -0.1565226E+00  -0.4999999E+00 -0.2886752E+00 -0.8164966E+00
 -0.1597503E-01 -0.1199014E+00 -0.1043484E+00  -0.4999999E+00 -0.2886752E+00 -0.8164966E+00
 -0.1118251E+00 -0.1014549E+00 -0.5217426E-01  -0.4999999E+00 -0.2886752E+00 -0.8164966E+00
 -0.1437752E+00 -0.4611588E-01 -0.5217426E-01  -0.4999999E+00 -0.2886752E+00 -0.8164966E+00
           6
 -0.1597502E-01  0.2766961E-01  0.1565226E+00   0.4999999E+00  0.2886752E+00  0.8164966E+00
  0.1597502E-01 -0.2766945E-01  0.1565226E+00   0.4999999E+00  0.2886752E+00  0.8164966E+00
  0.1118251E+00 -0.4611587E-01  0.1043484E+00   0.4999999E+00  0.2886752E+00  0.8164966E+00
  0.1437752E+00  0.4611588E-01  0.5217426E-01   0.4999999E+00  0.2886752E+00  0.8164966E+00
  0.1118251E+00  0.1014549E+00  0.5217426E-01   0.4999999E+00  0.2886752E+00  0.8164966E+00
  0.1597503E-01  0.1199014E+00  0.1043484E+00   0.4999999E+00  0.2886752E+00  0.8164966E+00
           4
 -0.1118251E+00 -0.1014551E+00 -0.5217402E-01   0.6132070E-16 -0.9428087E+00  0.3333344E+00
 -0.1597502E-01 -0.1199015E+00 -0.1043482E+00   0.6132070E-16 -0.9428087E+00  0.3333344E+00
  0.1118251E+00 -0.4611587E-01  0.1043484E+00   0.6132070E-16 -0.9428087E+00  0.3333344E+00
  0.1597502E-01 -0.2766945E-01  0.1565226E+00   0.6132070E-16 -0.9428087E+00  0.3333344E+00
           4
  0.1597503E-01  0.1199014E+00  0.1043484E+00   0.4264014E+00  0.7385493E+00  0.5222324E+00
  0.1118251E+00  0.1014549E+00  0.5217426E-01   0.4264014E+00  0.7385493E+00  0.5222324E+00
  0.1118251E+00  0.1014551E+00  0.5217403E-01   0.4264014E+00  0.7385493E+00  0.5222324E+00
  0.1597502E-01  0.1199015E+00  0.1043482E+00   0.4264014E+00  0.7385493E+00  0.5222324E+00
           4
  0.1597502E-01  0.1199015E+00  0.1043482E+00  -0.6132070E-16  0.9428087E+00 -0.3333344E+00
  0.1118251E+00  0.1014551E+00  0.5217402E-01  -0.6132070E-16  0.9428087E+00 -0.3333344E+00
 -0.1597502E-01  0.2766945E-01 -0.1565226E+00  -0.6132070E-16  0.9428087E+00 -0.3333344E+00
 -0.1118251E+00  0.4611587E-01 -0.1043484E+00  -0.6132070E-16  0.9428087E+00 -0.3333344E+00
           6
  0.1437752E+00  0.4611588E-01  0.5217426E-01   0.8164966E+00 -0.4714047E+00 -0.3333330E+00
  0.1118251E+00 -0.4611587E-01  0.1043484E+00   0.8164966E+00 -0.4714047E+00 -0.3333330E+00
 -0.1597502E-01 -0.1199015E+00 -0.1043482E+00   0.8164966E+00 -0.4714047E+00 -0.3333330E+00
 -0.1597502E-01 -0.1199014E+00 -0.1043484E+00   0.8164966E+00 -0.4714047E+00 -0.3333330E+00
  0.1597503E-01 -0.2766963E-01 -0.1565226E+00   0.8164966E+00 -0.4714047E+00 -0.3333330E+00
  0.1437752E+00  0.4611604E-01  0.5217403E-01   0.8164966E+00 -0.4714047E+00 -0.3333330E+00
           4
  0.1118251E+00  0.1014549E+00  0.5217426E-01   0.8164966E+00  0.4714047E+00  0.3333330E+00
  0.1437752E+00  0.4611588E-01  0.5217426E-01   0.8164966E+00  0.4714047E+00  0.3333330E+00
  0.1437752E+00  0.4611604E-01  0.5217403E-01   0.8164966E+00  0.4714047E+00  0.3333330E+00
  0.1118251E+00  0.1014551E+00  0.5217403E-01   0.8164966E+00  0.4714047E+00  0.3333330E+00
 BRILLOUIN-ZONE-PRIMCELL_END
 BRILLOUIN-ZONE-CONVCELL
           4
 -0.1437752E+00 -0.4611588E-01 -0.5217426E-01  -0.8164966E+00 -0.4714047E+00 -0.3333330E+00
 -0.1118251E+00 -0.1014549E+00 -0.5217426E-01  -0.8164966E+00 -0.4714047E+00 -0.3333330E+00
 -0.1118251E+00 -0.1014551E+00 -0.5217403E-01  -0.8164966E+00 -0.4714047E+00 -0.3333330E+00
 -0.1437752E+00 -0.4611604E-01 -0.5217403E-01  -0.8164966E+00 -0.4714047E+00 -0.3333330E+00
           6
  0.1597502E-01  0.1199015E+00  0.1043482E+00  -0.8164966E+00  0.4714047E+00  0.3333330E+00
 -0.1118251E+00  0.4611587E-01 -0.1043484E+00  -0.8164966E+00  0.4714047E+00  0.3333330E+00
 -0.1437752E+00 -0.4611588E-01 -0.5217426E-01  -0.8164966E+00  0.4714047E+00  0.3333330E+00
 -0.1437752E+00 -0.4611604E-01 -0.5217403E-01  -0.8164966E+00  0.4714047E+00  0.3333330E+00
 -0.1597503E-01  0.2766963E-01  0.1565226E+00  -0.8164966E+00  0.4714047E+00  0.3333330E+00
  0.1597502E-01  0.1199014E+00  0.1043484E+00  -0.8164966E+00  0.4714047E+00  0.3333330E+00
           3
 -0.1118251E+00 -0.1014551E+00 -0.5217403E-01  -0.4264014E+00 -0.7385493E+00 -0.5222324E+00
 -0.1597502E-01 -0.1199014E+00 -0.1043484E+00  -0.4264014E+00 -0.7385493E+00 -0.5222324E+00
 -0.1597502E-01 -0.1199015E+00 -0.1043482E+00  -0.4264014E+00 -0.7385493E+00 -0.5222324E+00
           6
 -0.1118251E+00  0.4611587E-01 -0.1043484E+00  -0.4999999E+00 -0.2886752E+00 -0.8164966E+00
 -0.1597502E-01  0.2766945E-01 -0.1565226E+00  -0.4999999E+00 -0.2886752E+00 -0.8164966E+00
  0.1597502E-01 -0.2766961E-01 -0.1565226E+00  -0.4999999E+00 -0.2886752E+00 -0.8164966E+00
 -0.1597503E-01 -0.1199014E+00 -0.1043484E+00  -0.4999999E+00 -0.2886752E+00 -0.8164966E+00
 -0.1118251E+00 -0.1014549E+00 -0.5217426E-01  -0.4999999E+00 -0.2886752E+00 -0.8164966E+00
 -0.1437752E+00 -0.4611588E-01 -0.5217426E-01  -0.4999999E+00 -0.2886752E+00 -0.8164966E+00
           6
 -0.1597502E-01  0.2766961E-01  0.1565226E+00   0.4999999E+00  0.2886752E+00  0.8164966E+00
  0.1597502E-01 -0.2766945E-01  0.1565226E+00   0.4999999E+00  0.2886752E+00  0.8164966E+00
  0.1118251E+00 -0.4611587E-01  0.1043484E+00   0.4999999E+00  0.2886752E+00  0.8164966E+00
  0.1437752E+00  0.4611588E-01  0.5217426E-01   0.4999999E+00  0.2886752E+00  0.8164966E+00
  0.1118251E+00  0.1014549E+00  0.5217426E-01   0.4999999E+00  0.2886752E+00  0.8164966E+00
  0.1597503E-01  0.1199014E+00  0.1043484E+00   0.4999999E+00  0.2886752E+00  0.8164966E+00
           4
 -0.1118251E+00 -0.1014551E+00 -0.5217402E-01   0.6132070E-16 -0.9428087E+00  0.3333344E+00
 -0.1597502E-01 -0.1199015E+00 -0.1043482E+00   0.6132070E-16 -0.9428087E+00  0.3333344E+00
  0.1118251E+00 -0.4611587E-01  0.1043484E+00   0.6132070E-16 -0.9428087E+00  0.3333344E+00
  0.1597502E-01 -0.2766945E-01  0.1565226E+00   0.6132070E-16 -0.9428087E+00  0.3333344E+00
           4
  0.1597503E-01  0.1199014E+00  0.1043484E+00   0.4264014E+00  0.7385493E+00  0.5222324E+00
  0.1118251E+00  0.1014549E+00  0.5217426E-01   0.4264014E+00  0.7385493E+00  0.5222324E+00
  0.1118251E+00  0.1014551E+00  0.5217403E-01   0.4264014E+00  0.7385493E+00  0.5222324E+00
  0.1597502E-01  0.1199015E+00  0.1043482E+00   0.4264014E+00  0.7385493E+00  0.5222324E+00
           4
  0.1597502E-01  0.1199015E+00  0.1043482E+00  -0.6132070E-16  0.9428087E+00 -0.3333344E+00
  0.1118251E+00  0.1014551E+00  0.5217402E-01  -0.6132070E-16  0.9428087E+00 -0.3333344E+00
 -0.1597502E-01  0.2766945E-01 -0.1565226E+00  -0.6132070E-16  0.9428087E+00 -0.3333344E+00
 -0.1118251E+00  0.4611587E-01 -0.1043484E+00  -0.6132070E-16  0.9428087E+00 -0.3333344E+00
           6
  0.1437752E+00  0.4611588E-01  0.5217426E-01   0.8164966E+00 -0.4714047E+00 -0.3333330E+00
  0.1118251E+00 -0.4611587E-01  0.1043484E+00   0.8164966E+00 -0.4714047E+00 -0.3333330E+00
 -0.1597502E-01 -0.1199015E+00 -0.1043482E+00   0.8164966E+00 -0.4714047E+00 -0.3333330E+00
 -0.1597502E-01 -0.1199014E+00 -0.1043484E+00   0.8164966E+00 -0.4714047E+00 -0.3333330E+00
  0.1597503E-01 -0.2766963E-01 -0.1565226E+00   0.8164966E+00 -0.4714047E+00 -0.3333330E+00
  0.1437752E+00  0.4611604E-01  0.5217403E-01   0.8164966E+00 -0.4714047E+00 -0.3333330E+00
           4
  0.1118251E+00  0.1014549E+00  0.5217426E-01   0.8164966E+00  0.4714047E+00  0.3333330E+00
  0.1437752E+00  0.4611588E-01  0.5217426E-01   0.8164966E+00  0.4714047E+00  0.3333330E+00
  0.1437752E+00  0.4611604E-01  0.5217403E-01   0.8164966E+00  0.4714047E+00  0.3333330E+00
  0.1118251E+00  0.1014551E+00  0.5217403E-01   0.8164966E+00  0.4714047E+00  0.3333330E+00
 BRILLOUIN-ZONE-CONVCELL_END
 ATOMS
   25    5.8683717950    3.3568321420    2.4070161730   -0.0000079700   -0.0000021700    0.0000044900
   25    7.8245505790    6.7450186270    2.4070211730   -0.0000078000    0.0000022700    0.0000028100
   25    9.7807304770    3.3568306330    2.4070164420   -0.0000081300   -0.0000017100    0.0000044200
   25   11.7369104980    6.7450187700    2.4070200470   -0.0000084300    0.0000022200    0.0000032200
   16    5.8687024080    1.1607838640    3.1832241800    0.0000081300   -0.0000000700   -0.0000038000
   16    7.8248817560    4.5489793880    3.1832256040    0.0000080700   -0.0000001800   -0.0000037200
   16    9.7810605170    1.1607841100    3.1832241380    0.0000080800   -0.0000001700   -0.0000037300
   16   11.7372392670    4.5489798120    3.1832258920    0.0000080500   -0.0000001800   -0.0000037000
 FRAMES
1      0.0000000000    0.0000000000    0.0000000000      7.8247163660    0.0000000000    0.0000000000
1      0.0000000000    0.0000000000    0.0000000000      3.9123581830    6.7763999910    0.0000000000
1      0.0000000000    0.0000000000    0.0000000000      1.9561790920    1.1294039110    3.1944248070
1      1.9561790920    1.1294039110    3.1944248070      9.7808954580    1.1294039110    3.1944248070
1      1.9561790920    1.1294039110    3.1944248070      5.8685372750    7.9058039020    3.1944248070
1      3.9123581830    6.7763999910    0.0000000000     11.7370745490    6.7763999910    0.0000000000
1      3.9123581830    6.7763999910    0.0000000000      5.8685372750    7.9058039020    3.1944248070
1      5.8685372750    7.9058039020    3.1944248070     13.6932536410    7.9058039020    3.1944248070
1      7.8247163660    0.0000000000    0.0000000000     11.7370745490    6.7763999910    0.0000000000
1      7.8247163660    0.0000000000    0.0000000000      9.7808954580    1.1294039110    3.1944248070
1      9.7808954580    1.1294039110    3.1944248070     13.6932536410    7.9058039020    3.1944248070
1     11.7370745490    6.7763999910    0.0000000000     13.6932536410    7.9058039020    3.1944248070
