 INFO
nunit      1    1    1
unit   cell
celltype   primcell
shape   parapipedal
 END_INFO
 DIM-GROUP
           3           1
 PRIMVEC
    7.8247163660    0.0000000000    0.0000000000
    3.9123581830    6.7763999910    0.0000000000
    1.9561790920    1.1294039110    3.1944248070
 CONVVEC
    7.8247163660    0.0000000000    0.0000000000
    3.9123581830    6.7763999910    0.0000000000
    1.9561790920    1.1294039110    3.1944248070
 PRIMCOORD
           8           1
 25      5.8657658080     3.3866008120     2.4030315510     0.0000211600     0.0000122500     0.0000107400
 25      7.8219442500     6.7748027570     2.4030312090     0.0000213100     0.0000123900     0.0000106000
 25      9.7781219770     3.3866013540     2.4030324120     0.0000213900     0.0000122700     0.0000105900
 25     11.7343016230     6.7748041210     2.4030311190     0.0000212800     0.0000121900     0.0000107300
 16      0.0027721370     0.0016003780    -0.0072125760    -0.0000212700    -0.0000120700    -0.0000107600
 16      1.9589519040     3.3898010090    -0.0072133610    -0.0000214000    -0.0000124100    -0.0000105400
 16      3.9151310190     0.0016006020    -0.0072131260    -0.0000213000    -0.0000122000    -0.0000106800
 16      5.8713094790     3.3898006680    -0.0072128060    -0.0000211600    -0.0000124100    -0.0000106800
 CONVCOORD
           8           1
 25      5.8657658080     3.3866008120     2.4030315510
 25      7.8219442500     6.7748027570     2.4030312090
 25      9.7781219770     3.3866013540     2.4030324120
 25     11.7343016230     6.7748041210     2.4030311190
 16      0.0027721370     0.0016003780    -0.0072125760
 16      1.9589519040     3.3898010090    -0.0072133610
 16      3.9151310190     0.0016006020    -0.0072131260
 16      5.8713094790     3.3898006680    -0.0072128060
 RECIP-PRIMVEC
    0.1278001595   -0.0737854909   -0.0521741434

    0.0000000000    0.1475709818   -0.0521744145

    0.0000000000    0.0000000000    0.3130454027

 RECIP-CONVVEC
    0.1278001595   -0.0737854909   -0.0521741434

    0.0000000000    0.1475709818   -0.0521744145

    0.0000000000    0.0000000000    0.3130454027

 WIGNER-SEITZ-PRIMCELL
           4
  0.1956178E+01 -0.3388201E+01 -0.2395817E+01   0.5000001E+00 -0.2886761E+00 -0.8164962E+00
  0.1956178E+01  0.1129392E+01 -0.3993033E+01   0.5000001E+00 -0.2886761E+00 -0.8164962E+00
  0.1956180E+01  0.1129393E+01 -0.3993032E+01   0.5000001E+00 -0.2886761E+00 -0.8164962E+00
  0.1956180E+01 -0.3388199E+01 -0.2395816E+01   0.5000001E+00 -0.2886761E+00 -0.8164962E+00
           6
  0.3354575E-05 -0.4517599E+01 -0.7986046E+00  -0.5000001E+00 -0.2886761E+00 -0.8164962E+00
 -0.3912357E+01 -0.2258796E+01  0.7986083E+00  -0.5000001E+00 -0.2886761E+00 -0.8164962E+00
 -0.3912357E+01  0.2258797E+01 -0.7986076E+00  -0.5000001E+00 -0.2886761E+00 -0.8164962E+00
 -0.1956182E+01  0.3388195E+01 -0.2395820E+01  -0.5000001E+00 -0.2886761E+00 -0.8164962E+00
  0.1956178E+01  0.1129392E+01 -0.3993033E+01  -0.5000001E+00 -0.2886761E+00 -0.8164962E+00
  0.1956178E+01 -0.3388201E+01 -0.2395817E+01  -0.5000001E+00 -0.2886761E+00 -0.8164962E+00
           4
 -0.1956178E+01  0.3388201E+01 -0.2395816E+01   0.1999847E-09  0.5773497E+00 -0.8164970E+00
  0.1956182E+01  0.1129397E+01 -0.3993029E+01   0.1999847E-09  0.5773497E+00 -0.8164970E+00
  0.1956180E+01  0.1129393E+01 -0.3993032E+01   0.1999847E-09  0.5773497E+00 -0.8164970E+00
 -0.1956180E+01  0.3388199E+01 -0.2395817E+01   0.1999847E-09  0.5773497E+00 -0.8164970E+00
           6
  0.1956180E+01 -0.3388199E+01  0.2395817E+01   0.5000002E+00 -0.8660253E+00  0.8838881E-10
  0.1956178E+01 -0.3388201E+01  0.2395816E+01   0.5000002E+00 -0.8660253E+00  0.8838881E-10
  0.3354575E-05 -0.4517599E+01 -0.7986046E+00   0.5000002E+00 -0.8660253E+00  0.8838881E-10
  0.1956178E+01 -0.3388201E+01 -0.2395817E+01   0.5000002E+00 -0.8660253E+00  0.8838881E-10
  0.1956180E+01 -0.3388199E+01 -0.2395816E+01   0.5000002E+00 -0.8660253E+00  0.8838881E-10
  0.3912355E+01 -0.2258801E+01  0.7986046E+00   0.5000002E+00 -0.8660253E+00  0.8838881E-10
           6
  0.1956180E+01 -0.3388199E+01 -0.2395816E+01   0.8660255E+00 -0.1666672E+00 -0.4714042E+00
  0.1956180E+01  0.1129393E+01 -0.3993032E+01   0.8660255E+00 -0.1666672E+00 -0.4714042E+00
  0.1956182E+01  0.1129397E+01 -0.3993029E+01   0.8660255E+00 -0.1666672E+00 -0.4714042E+00
  0.3912357E+01  0.2258796E+01 -0.7986083E+00   0.8660255E+00 -0.1666672E+00 -0.4714042E+00
  0.3912357E+01 -0.2258797E+01  0.7986076E+00   0.8660255E+00 -0.1666672E+00 -0.4714042E+00
  0.3912355E+01 -0.2258801E+01  0.7986046E+00   0.8660255E+00 -0.1666672E+00 -0.4714042E+00
           4
 -0.3912355E+01  0.2258801E+01 -0.7986046E+00  -0.6708208E+00  0.6454968E+00 -0.3651483E+00
 -0.1956180E+01  0.3388199E+01 -0.2395817E+01  -0.6708208E+00  0.6454968E+00 -0.3651483E+00
 -0.1956182E+01  0.3388195E+01 -0.2395820E+01  -0.6708208E+00  0.6454968E+00 -0.3651483E+00
 -0.3912357E+01  0.2258797E+01 -0.7986076E+00  -0.6708208E+00  0.6454968E+00 -0.3651483E+00
           6
 -0.1956182E+01 -0.1129397E+01  0.3993029E+01  -0.8660255E+00  0.1666672E+00  0.4714042E+00
 -0.1956180E+01 -0.1129393E+01  0.3993032E+01  -0.8660255E+00  0.1666672E+00  0.4714042E+00
 -0.1956180E+01  0.3388199E+01  0.2395816E+01  -0.8660255E+00  0.1666672E+00  0.4714042E+00
 -0.3912355E+01  0.2258801E+01 -0.7986046E+00  -0.8660255E+00  0.1666672E+00  0.4714042E+00
 -0.3912357E+01  0.2258797E+01 -0.7986076E+00  -0.8660255E+00  0.1666672E+00  0.4714042E+00
 -0.3912357E+01 -0.2258796E+01  0.7986083E+00  -0.8660255E+00  0.1666672E+00  0.4714042E+00
           4
 -0.3912357E+01 -0.2258796E+01  0.7986083E+00  -0.2886754E+00 -0.8333332E+00  0.4714046E+00
  0.3354575E-05 -0.4517599E+01 -0.7986046E+00  -0.2886754E+00 -0.8333332E+00  0.4714046E+00
  0.1956178E+01 -0.3388201E+01  0.2395816E+01  -0.2886754E+00 -0.8333332E+00  0.4714046E+00
 -0.1956182E+01 -0.1129397E+01  0.3993029E+01  -0.2886754E+00 -0.8333332E+00  0.4714046E+00
           6
 -0.3354575E-05  0.4517599E+01  0.7986046E+00  -0.5000002E+00  0.8660253E+00 -0.4855339E-09
 -0.1956178E+01  0.3388201E+01 -0.2395816E+01  -0.5000002E+00  0.8660253E+00 -0.4855339E-09
 -0.1956180E+01  0.3388199E+01 -0.2395817E+01  -0.5000002E+00  0.8660253E+00 -0.4855339E-09
 -0.3912355E+01  0.2258801E+01 -0.7986046E+00  -0.5000002E+00  0.8660253E+00 -0.4855339E-09
 -0.1956180E+01  0.3388199E+01  0.2395816E+01  -0.5000002E+00  0.8660253E+00 -0.4855339E-09
 -0.1956178E+01  0.3388201E+01  0.2395817E+01  -0.5000002E+00  0.8660253E+00 -0.4855339E-09
           4
 -0.3354575E-05  0.4517599E+01  0.7986046E+00   0.2886754E+00  0.8333332E+00 -0.4714046E+00
  0.3912357E+01  0.2258796E+01 -0.7986083E+00   0.2886754E+00  0.8333332E+00 -0.4714046E+00
  0.1956182E+01  0.1129397E+01 -0.3993029E+01   0.2886754E+00  0.8333332E+00 -0.4714046E+00
 -0.1956178E+01  0.3388201E+01 -0.2395816E+01   0.2886754E+00  0.8333332E+00 -0.4714046E+00
           4
 -0.1956180E+01 -0.1129393E+01  0.3993032E+01   0.2145116E-09 -0.5773497E+00  0.8164970E+00
  0.1956180E+01 -0.3388199E+01  0.2395817E+01   0.2145116E-09 -0.5773497E+00  0.8164970E+00
  0.1956182E+01 -0.3388195E+01  0.2395820E+01   0.2145116E-09 -0.5773497E+00  0.8164970E+00
 -0.1956178E+01 -0.1129392E+01  0.3993033E+01   0.2145116E-09 -0.5773497E+00  0.8164970E+00
           4
  0.1956180E+01 -0.3388199E+01  0.2395817E+01   0.6708208E+00 -0.6454968E+00  0.3651483E+00
  0.3912355E+01 -0.2258801E+01  0.7986046E+00   0.6708208E+00 -0.6454968E+00  0.3651483E+00
  0.3912357E+01 -0.2258797E+01  0.7986076E+00   0.6708208E+00 -0.6454968E+00  0.3651483E+00
  0.1956182E+01 -0.3388195E+01  0.2395820E+01   0.6708208E+00 -0.6454968E+00  0.3651483E+00
           6
  0.3912357E+01 -0.2258797E+01  0.7986076E+00   0.5000001E+00  0.2886761E+00  0.8164962E+00
  0.3912357E+01  0.2258796E+01 -0.7986083E+00   0.5000001E+00  0.2886761E+00  0.8164962E+00
 -0.3354575E-05  0.4517599E+01  0.7986046E+00   0.5000001E+00  0.2886761E+00  0.8164962E+00
 -0.1956178E+01  0.3388201E+01  0.2395817E+01   0.5000001E+00  0.2886761E+00  0.8164962E+00
 -0.1956178E+01 -0.1129392E+01  0.3993033E+01   0.5000001E+00  0.2886761E+00  0.8164962E+00
  0.1956182E+01 -0.3388195E+01  0.2395820E+01   0.5000001E+00  0.2886761E+00  0.8164962E+00
           4
 -0.1956178E+01 -0.1129392E+01  0.3993033E+01  -0.5000001E+00  0.2886761E+00  0.8164962E+00
 -0.1956178E+01  0.3388201E+01  0.2395817E+01  -0.5000001E+00  0.2886761E+00  0.8164962E+00
 -0.1956180E+01  0.3388199E+01  0.2395816E+01  -0.5000001E+00  0.2886761E+00  0.8164962E+00
 -0.1956180E+01 -0.1129393E+01  0.3993032E+01  -0.5000001E+00  0.2886761E+00  0.8164962E+00
 WIGNER-SEITZ-PRIMCELL_END
 WIGNER-SEITZ-CONVCELL
           4
  0.1956178E+01 -0.3388201E+01 -0.2395817E+01   0.5000001E+00 -0.2886761E+00 -0.8164962E+00
  0.1956178E+01  0.1129392E+01 -0.3993033E+01   0.5000001E+00 -0.2886761E+00 -0.8164962E+00
  0.1956180E+01  0.1129393E+01 -0.3993032E+01   0.5000001E+00 -0.2886761E+00 -0.8164962E+00
  0.1956180E+01 -0.3388199E+01 -0.2395816E+01   0.5000001E+00 -0.2886761E+00 -0.8164962E+00
           6
  0.3354575E-05 -0.4517599E+01 -0.7986046E+00  -0.5000001E+00 -0.2886761E+00 -0.8164962E+00
 -0.3912357E+01 -0.2258796E+01  0.7986083E+00  -0.5000001E+00 -0.2886761E+00 -0.8164962E+00
 -0.3912357E+01  0.2258797E+01 -0.7986076E+00  -0.5000001E+00 -0.2886761E+00 -0.8164962E+00
 -0.1956182E+01  0.3388195E+01 -0.2395820E+01  -0.5000001E+00 -0.2886761E+00 -0.8164962E+00
  0.1956178E+01  0.1129392E+01 -0.3993033E+01  -0.5000001E+00 -0.2886761E+00 -0.8164962E+00
  0.1956178E+01 -0.3388201E+01 -0.2395817E+01  -0.5000001E+00 -0.2886761E+00 -0.8164962E+00
           4
 -0.1956178E+01  0.3388201E+01 -0.2395816E+01   0.1999847E-09  0.5773497E+00 -0.8164970E+00
  0.1956182E+01  0.1129397E+01 -0.3993029E+01   0.1999847E-09  0.5773497E+00 -0.8164970E+00
  0.1956180E+01  0.1129393E+01 -0.3993032E+01   0.1999847E-09  0.5773497E+00 -0.8164970E+00
 -0.1956180E+01  0.3388199E+01 -0.2395817E+01   0.1999847E-09  0.5773497E+00 -0.8164970E+00
           6
  0.1956180E+01 -0.3388199E+01  0.2395817E+01   0.5000002E+00 -0.8660253E+00  0.8838881E-10
  0.1956178E+01 -0.3388201E+01  0.2395816E+01   0.5000002E+00 -0.8660253E+00  0.8838881E-10
  0.3354575E-05 -0.4517599E+01 -0.7986046E+00   0.5000002E+00 -0.8660253E+00  0.8838881E-10
  0.1956178E+01 -0.3388201E+01 -0.2395817E+01   0.5000002E+00 -0.8660253E+00  0.8838881E-10
  0.1956180E+01 -0.3388199E+01 -0.2395816E+01   0.5000002E+00 -0.8660253E+00  0.8838881E-10
  0.3912355E+01 -0.2258801E+01  0.7986046E+00   0.5000002E+00 -0.8660253E+00  0.8838881E-10
           6
  0.1956180E+01 -0.3388199E+01 -0.2395816E+01   0.8660255E+00 -0.1666672E+00 -0.4714042E+00
  0.1956180E+01  0.1129393E+01 -0.3993032E+01   0.8660255E+00 -0.1666672E+00 -0.4714042E+00
  0.1956182E+01  0.1129397E+01 -0.3993029E+01   0.8660255E+00 -0.1666672E+00 -0.4714042E+00
  0.3912357E+01  0.2258796E+01 -0.7986083E+00   0.8660255E+00 -0.1666672E+00 -0.4714042E+00
  0.3912357E+01 -0.2258797E+01  0.7986076E+00   0.8660255E+00 -0.1666672E+00 -0.4714042E+00
  0.3912355E+01 -0.2258801E+01  0.7986046E+00   0.8660255E+00 -0.1666672E+00 -0.4714042E+00
           4
 -0.3912355E+01  0.2258801E+01 -0.7986046E+00  -0.6708208E+00  0.6454968E+00 -0.3651483E+00
 -0.1956180E+01  0.3388199E+01 -0.2395817E+01  -0.6708208E+00  0.6454968E+00 -0.3651483E+00
 -0.1956182E+01  0.3388195E+01 -0.2395820E+01  -0.6708208E+00  0.6454968E+00 -0.3651483E+00
 -0.3912357E+01  0.2258797E+01 -0.7986076E+00  -0.6708208E+00  0.6454968E+00 -0.3651483E+00
           6
 -0.1956182E+01 -0.1129397E+01  0.3993029E+01  -0.8660255E+00  0.1666672E+00  0.4714042E+00
 -0.1956180E+01 -0.1129393E+01  0.3993032E+01  -0.8660255E+00  0.1666672E+00  0.4714042E+00
 -0.1956180E+01  0.3388199E+01  0.2395816E+01  -0.8660255E+00  0.1666672E+00  0.4714042E+00
 -0.3912355E+01  0.2258801E+01 -0.7986046E+00  -0.8660255E+00  0.1666672E+00  0.4714042E+00
 -0.3912357E+01  0.2258797E+01 -0.7986076E+00  -0.8660255E+00  0.1666672E+00  0.4714042E+00
 -0.3912357E+01 -0.2258796E+01  0.7986083E+00  -0.8660255E+00  0.1666672E+00  0.4714042E+00
           4
 -0.3912357E+01 -0.2258796E+01  0.7986083E+00  -0.2886754E+00 -0.8333332E+00  0.4714046E+00
  0.3354575E-05 -0.4517599E+01 -0.7986046E+00  -0.2886754E+00 -0.8333332E+00  0.4714046E+00
  0.1956178E+01 -0.3388201E+01  0.2395816E+01  -0.2886754E+00 -0.8333332E+00  0.4714046E+00
 -0.1956182E+01 -0.1129397E+01  0.3993029E+01  -0.2886754E+00 -0.8333332E+00  0.4714046E+00
           6
 -0.3354575E-05  0.4517599E+01  0.7986046E+00  -0.5000002E+00  0.8660253E+00 -0.4855339E-09
 -0.1956178E+01  0.3388201E+01 -0.2395816E+01  -0.5000002E+00  0.8660253E+00 -0.4855339E-09
 -0.1956180E+01  0.3388199E+01 -0.2395817E+01  -0.5000002E+00  0.8660253E+00 -0.4855339E-09
 -0.3912355E+01  0.2258801E+01 -0.7986046E+00  -0.5000002E+00  0.8660253E+00 -0.4855339E-09
 -0.1956180E+01  0.3388199E+01  0.2395816E+01  -0.5000002E+00  0.8660253E+00 -0.4855339E-09
 -0.1956178E+01  0.3388201E+01  0.2395817E+01  -0.5000002E+00  0.8660253E+00 -0.4855339E-09
           4
 -0.3354575E-05  0.4517599E+01  0.7986046E+00   0.2886754E+00  0.8333332E+00 -0.4714046E+00
  0.3912357E+01  0.2258796E+01 -0.7986083E+00   0.2886754E+00  0.8333332E+00 -0.4714046E+00
  0.1956182E+01  0.1129397E+01 -0.3993029E+01   0.2886754E+00  0.8333332E+00 -0.4714046E+00
 -0.1956178E+01  0.3388201E+01 -0.2395816E+01   0.2886754E+00  0.8333332E+00 -0.4714046E+00
           4
 -0.1956180E+01 -0.1129393E+01  0.3993032E+01   0.2145116E-09 -0.5773497E+00  0.8164970E+00
  0.1956180E+01 -0.3388199E+01  0.2395817E+01   0.2145116E-09 -0.5773497E+00  0.8164970E+00
  0.1956182E+01 -0.3388195E+01  0.2395820E+01   0.2145116E-09 -0.5773497E+00  0.8164970E+00
 -0.1956178E+01 -0.1129392E+01  0.3993033E+01   0.2145116E-09 -0.5773497E+00  0.8164970E+00
           4
  0.1956180E+01 -0.3388199E+01  0.2395817E+01   0.6708208E+00 -0.6454968E+00  0.3651483E+00
  0.3912355E+01 -0.2258801E+01  0.7986046E+00   0.6708208E+00 -0.6454968E+00  0.3651483E+00
  0.3912357E+01 -0.2258797E+01  0.7986076E+00   0.6708208E+00 -0.6454968E+00  0.3651483E+00
  0.1956182E+01 -0.3388195E+01  0.2395820E+01   0.6708208E+00 -0.6454968E+00  0.3651483E+00
           6
  0.3912357E+01 -0.2258797E+01  0.7986076E+00   0.5000001E+00  0.2886761E+00  0.8164962E+00
  0.3912357E+01  0.2258796E+01 -0.7986083E+00   0.5000001E+00  0.2886761E+00  0.8164962E+00
 -0.3354575E-05  0.4517599E+01  0.7986046E+00   0.5000001E+00  0.2886761E+00  0.8164962E+00
 -0.1956178E+01  0.3388201E+01  0.2395817E+01   0.5000001E+00  0.2886761E+00  0.8164962E+00
 -0.1956178E+01 -0.1129392E+01  0.3993033E+01   0.5000001E+00  0.2886761E+00  0.8164962E+00
  0.1956182E+01 -0.3388195E+01  0.2395820E+01   0.5000001E+00  0.2886761E+00  0.8164962E+00
           4
 -0.1956178E+01 -0.1129392E+01  0.3993033E+01  -0.5000001E+00  0.2886761E+00  0.8164962E+00
 -0.1956178E+01  0.3388201E+01  0.2395817E+01  -0.5000001E+00  0.2886761E+00  0.8164962E+00
 -0.1956180E+01  0.3388199E+01  0.2395816E+01  -0.5000001E+00  0.2886761E+00  0.8164962E+00
 -0.1956180E+01 -0.1129393E+01  0.3993032E+01  -0.5000001E+00  0.2886761E+00  0.8164962E+00
 WIGNER-SEITZ-CONVCELL_END
 BRILLOUIN-ZONE-PRIMCELL
           4
 -0.1437752E+00 -0.4611588E-01 -0.5217426E-01  -0.8164966E+00 -0.4714047E+00 -0.3333330E+00
 -0.1118251E+00 -0.1014549E+00 -0.5217426E-01  -0.8164966E+00 -0.4714047E+00 -0.3333330E+00
 -0.1118251E+00 -0.1014551E+00 -0.5217403E-01  -0.8164966E+00 -0.4714047E+00 -0.3333330E+00
 -0.1437752E+00 -0.4611604E-01 -0.5217403E-01  -0.8164966E+00 -0.4714047E+00 -0.3333330E+00
           4
 -0.1597503E-01  0.2766963E-01  0.1565226E+00  -0.7071064E+00 -0.4082482E+00  0.5773508E+00
 -0.1437752E+00 -0.4611604E-01 -0.5217403E-01  -0.7071064E+00 -0.4082482E+00  0.5773508E+00
 -0.1118251E+00 -0.1014551E+00 -0.5217402E-01  -0.7071064E+00 -0.4082482E+00  0.5773508E+00
  0.1597502E-01 -0.2766945E-01  0.1565226E+00  -0.7071064E+00 -0.4082482E+00  0.5773508E+00
           6
  0.1597502E-01  0.1199015E+00  0.1043482E+00  -0.8164966E+00  0.4714047E+00  0.3333330E+00
 -0.1118251E+00  0.4611587E-01 -0.1043484E+00  -0.8164966E+00  0.4714047E+00  0.3333330E+00
 -0.1437752E+00 -0.4611588E-01 -0.5217426E-01  -0.8164966E+00  0.4714047E+00  0.3333330E+00
 -0.1437752E+00 -0.4611604E-01 -0.5217403E-01  -0.8164966E+00  0.4714047E+00  0.3333330E+00
 -0.1597503E-01  0.2766963E-01  0.1565226E+00  -0.8164966E+00  0.4714047E+00  0.3333330E+00
  0.1597502E-01  0.1199014E+00  0.1043484E+00  -0.8164966E+00  0.4714047E+00  0.3333330E+00
           6
 -0.1118251E+00  0.4611587E-01 -0.1043484E+00  -0.4999999E+00 -0.2886752E+00 -0.8164966E+00
 -0.1597502E-01  0.2766945E-01 -0.1565226E+00  -0.4999999E+00 -0.2886752E+00 -0.8164966E+00
  0.1597502E-01 -0.2766961E-01 -0.1565226E+00  -0.4999999E+00 -0.2886752E+00 -0.8164966E+00
 -0.1597503E-01 -0.1199014E+00 -0.1043484E+00  -0.4999999E+00 -0.2886752E+00 -0.8164966E+00
 -0.1118251E+00 -0.1014549E+00 -0.5217426E-01  -0.4999999E+00 -0.2886752E+00 -0.8164966E+00
 -0.1437752E+00 -0.4611588E-01 -0.5217426E-01  -0.4999999E+00 -0.2886752E+00 -0.8164966E+00
           6
 -0.1597502E-01  0.2766961E-01  0.1565226E+00   0.4999999E+00  0.2886752E+00  0.8164966E+00
  0.1597502E-01 -0.2766945E-01  0.1565226E+00   0.4999999E+00  0.2886752E+00  0.8164966E+00
  0.1118251E+00 -0.4611587E-01  0.1043484E+00   0.4999999E+00  0.2886752E+00  0.8164966E+00
  0.1437752E+00  0.4611588E-01  0.5217426E-01   0.4999999E+00  0.2886752E+00  0.8164966E+00
  0.1118251E+00  0.1014549E+00  0.5217426E-01   0.4999999E+00  0.2886752E+00  0.8164966E+00
  0.1597503E-01  0.1199014E+00  0.1043484E+00   0.4999999E+00  0.2886752E+00  0.8164966E+00
           4
 -0.1118251E+00 -0.1014551E+00 -0.5217402E-01   0.6132070E-16 -0.9428087E+00  0.3333344E+00
 -0.1597502E-01 -0.1199015E+00 -0.1043482E+00   0.6132070E-16 -0.9428087E+00  0.3333344E+00
  0.1118251E+00 -0.4611587E-01  0.1043484E+00   0.6132070E-16 -0.9428087E+00  0.3333344E+00
  0.1597502E-01 -0.2766945E-01  0.1565226E+00   0.6132070E-16 -0.9428087E+00  0.3333344E+00
           3
  0.1118251E+00  0.1014549E+00  0.5217426E-01   0.4264014E+00  0.7385493E+00  0.5222324E+00
  0.1118251E+00  0.1014551E+00  0.5217403E-01   0.4264014E+00  0.7385493E+00  0.5222324E+00
  0.1597502E-01  0.1199015E+00  0.1043482E+00   0.4264014E+00  0.7385493E+00  0.5222324E+00
           4
  0.1597502E-01  0.1199015E+00  0.1043482E+00  -0.6132070E-16  0.9428087E+00 -0.3333344E+00
  0.1118251E+00  0.1014551E+00  0.5217402E-01  -0.6132070E-16  0.9428087E+00 -0.3333344E+00
 -0.1597502E-01  0.2766945E-01 -0.1565226E+00  -0.6132070E-16  0.9428087E+00 -0.3333344E+00
 -0.1118251E+00  0.4611587E-01 -0.1043484E+00  -0.6132070E-16  0.9428087E+00 -0.3333344E+00
           6
  0.1437752E+00  0.4611588E-01  0.5217426E-01   0.8164966E+00 -0.4714047E+00 -0.3333330E+00
  0.1118251E+00 -0.4611587E-01  0.1043484E+00   0.8164966E+00 -0.4714047E+00 -0.3333330E+00
 -0.1597502E-01 -0.1199015E+00 -0.1043482E+00   0.8164966E+00 -0.4714047E+00 -0.3333330E+00
 -0.1597502E-01 -0.1199014E+00 -0.1043484E+00   0.8164966E+00 -0.4714047E+00 -0.3333330E+00
  0.1597503E-01 -0.2766963E-01 -0.1565226E+00   0.8164966E+00 -0.4714047E+00 -0.3333330E+00
  0.1437752E+00  0.4611604E-01  0.5217403E-01   0.8164966E+00 -0.4714047E+00 -0.3333330E+00
           4
  0.1437752E+00  0.4611604E-01  0.5217403E-01   0.7071064E+00  0.4082482E+00 -0.5773508E+00
  0.1597503E-01 -0.2766963E-01 -0.1565226E+00   0.7071064E+00  0.4082482E+00 -0.5773508E+00
 -0.1597502E-01  0.2766945E-01 -0.1565226E+00   0.7071064E+00  0.4082482E+00 -0.5773508E+00
  0.1118251E+00  0.1014551E+00  0.5217402E-01   0.7071064E+00  0.4082482E+00 -0.5773508E+00
           4
  0.1118251E+00  0.1014549E+00  0.5217426E-01   0.8164966E+00  0.4714047E+00  0.3333330E+00
  0.1437752E+00  0.4611588E-01  0.5217426E-01   0.8164966E+00  0.4714047E+00  0.3333330E+00
  0.1437752E+00  0.4611604E-01  0.5217403E-01   0.8164966E+00  0.4714047E+00  0.3333330E+00
  0.1118251E+00  0.1014551E+00  0.5217403E-01   0.8164966E+00  0.4714047E+00  0.3333330E+00
 BRILLOUIN-ZONE-PRIMCELL_END
 BRILLOUIN-ZONE-CONVCELL
           4
 -0.1437752E+00 -0.4611588E-01 -0.5217426E-01  -0.8164966E+00 -0.4714047E+00 -0.3333330E+00
 -0.1118251E+00 -0.1014549E+00 -0.5217426E-01  -0.8164966E+00 -0.4714047E+00 -0.3333330E+00
 -0.1118251E+00 -0.1014551E+00 -0.5217403E-01  -0.8164966E+00 -0.4714047E+00 -0.3333330E+00
 -0.1437752E+00 -0.4611604E-01 -0.5217403E-01  -0.8164966E+00 -0.4714047E+00 -0.3333330E+00
           4
 -0.1597503E-01  0.2766963E-01  0.1565226E+00  -0.7071064E+00 -0.4082482E+00  0.5773508E+00
 -0.1437752E+00 -0.4611604E-01 -0.5217403E-01  -0.7071064E+00 -0.4082482E+00  0.5773508E+00
 -0.1118251E+00 -0.1014551E+00 -0.5217402E-01  -0.7071064E+00 -0.4082482E+00  0.5773508E+00
  0.1597502E-01 -0.2766945E-01  0.1565226E+00  -0.7071064E+00 -0.4082482E+00  0.5773508E+00
           6
  0.1597502E-01  0.1199015E+00  0.1043482E+00  -0.8164966E+00  0.4714047E+00  0.3333330E+00
 -0.1118251E+00  0.4611587E-01 -0.1043484E+00  -0.8164966E+00  0.4714047E+00  0.3333330E+00
 -0.1437752E+00 -0.4611588E-01 -0.5217426E-01  -0.8164966E+00  0.4714047E+00  0.3333330E+00
 -0.1437752E+00 -0.4611604E-01 -0.5217403E-01  -0.8164966E+00  0.4714047E+00  0.3333330E+00
 -0.1597503E-01  0.2766963E-01  0.1565226E+00  -0.8164966E+00  0.4714047E+00  0.3333330E+00
  0.1597502E-01  0.1199014E+00  0.1043484E+00  -0.8164966E+00  0.4714047E+00  0.3333330E+00
           6
 -0.1118251E+00  0.4611587E-01 -0.1043484E+00  -0.4999999E+00 -0.2886752E+00 -0.8164966E+00
 -0.1597502E-01  0.2766945E-01 -0.1565226E+00  -0.4999999E+00 -0.2886752E+00 -0.8164966E+00
  0.1597502E-01 -0.2766961E-01 -0.1565226E+00  -0.4999999E+00 -0.2886752E+00 -0.8164966E+00
 -0.1597503E-01 -0.1199014E+00 -0.1043484E+00  -0.4999999E+00 -0.2886752E+00 -0.8164966E+00
 -0.1118251E+00 -0.1014549E+00 -0.5217426E-01  -0.4999999E+00 -0.2886752E+00 -0.8164966E+00
 -0.1437752E+00 -0.4611588E-01 -0.5217426E-01  -0.4999999E+00 -0.2886752E+00 -0.8164966E+00
           6
 -0.1597502E-01  0.2766961E-01  0.1565226E+00   0.4999999E+00  0.2886752E+00  0.8164966E+00
  0.1597502E-01 -0.2766945E-01  0.1565226E+00   0.4999999E+00  0.2886752E+00  0.8164966E+00
  0.1118251E+00 -0.4611587E-01  0.1043484E+00   0.4999999E+00  0.2886752E+00  0.8164966E+00
  0.1437752E+00  0.4611588E-01  0.5217426E-01   0.4999999E+00  0.2886752E+00  0.8164966E+00
  0.1118251E+00  0.1014549E+00  0.5217426E-01   0.4999999E+00  0.2886752E+00  0.8164966E+00
  0.1597503E-01  0.1199014E+00  0.1043484E+00   0.4999999E+00  0.2886752E+00  0.8164966E+00
           4
 -0.1118251E+00 -0.1014551E+00 -0.5217402E-01   0.6132070E-16 -0.9428087E+00  0.3333344E+00
 -0.1597502E-01 -0.1199015E+00 -0.1043482E+00   0.6132070E-16 -0.9428087E+00  0.3333344E+00
  0.1118251E+00 -0.4611587E-01  0.1043484E+00   0.6132070E-16 -0.9428087E+00  0.3333344E+00
  0.1597502E-01 -0.2766945E-01  0.1565226E+00   0.6132070E-16 -0.9428087E+00  0.3333344E+00
           3
  0.1118251E+00  0.1014549E+00  0.5217426E-01   0.4264014E+00  0.7385493E+00  0.5222324E+00
  0.1118251E+00  0.1014551E+00  0.5217403E-01   0.4264014E+00  0.7385493E+00  0.5222324E+00
  0.1597502E-01  0.1199015E+00  0.1043482E+00   0.4264014E+00  0.7385493E+00  0.5222324E+00
           4
  0.1597502E-01  0.1199015E+00  0.1043482E+00  -0.6132070E-16  0.9428087E+00 -0.3333344E+00
  0.1118251E+00  0.1014551E+00  0.5217402E-01  -0.6132070E-16  0.9428087E+00 -0.3333344E+00
 -0.1597502E-01  0.2766945E-01 -0.1565226E+00  -0.6132070E-16  0.9428087E+00 -0.3333344E+00
 -0.1118251E+00  0.4611587E-01 -0.1043484E+00  -0.6132070E-16  0.9428087E+00 -0.3333344E+00
           6
  0.1437752E+00  0.4611588E-01  0.5217426E-01   0.8164966E+00 -0.4714047E+00 -0.3333330E+00
  0.1118251E+00 -0.4611587E-01  0.1043484E+00   0.8164966E+00 -0.4714047E+00 -0.3333330E+00
 -0.1597502E-01 -0.1199015E+00 -0.1043482E+00   0.8164966E+00 -0.4714047E+00 -0.3333330E+00
 -0.1597502E-01 -0.1199014E+00 -0.1043484E+00   0.8164966E+00 -0.4714047E+00 -0.3333330E+00
  0.1597503E-01 -0.2766963E-01 -0.1565226E+00   0.8164966E+00 -0.4714047E+00 -0.3333330E+00
  0.1437752E+00  0.4611604E-01  0.5217403E-01   0.8164966E+00 -0.4714047E+00 -0.3333330E+00
           4
  0.1437752E+00  0.4611604E-01  0.5217403E-01   0.7071064E+00  0.4082482E+00 -0.5773508E+00
  0.1597503E-01 -0.2766963E-01 -0.1565226E+00   0.7071064E+00  0.4082482E+00 -0.5773508E+00
 -0.1597502E-01  0.2766945E-01 -0.1565226E+00   0.7071064E+00  0.4082482E+00 -0.5773508E+00
  0.1118251E+00  0.1014551E+00  0.5217402E-01   0.7071064E+00  0.4082482E+00 -0.5773508E+00
           4
  0.1118251E+00  0.1014549E+00  0.5217426E-01   0.8164966E+00  0.4714047E+00  0.3333330E+00
  0.1437752E+00  0.4611588E-01  0.5217426E-01   0.8164966E+00  0.4714047E+00  0.3333330E+00
  0.1437752E+00  0.4611604E-01  0.5217403E-01   0.8164966E+00  0.4714047E+00  0.3333330E+00
  0.1118251E+00  0.1014551E+00  0.5217403E-01   0.8164966E+00  0.4714047E+00  0.3333330E+00
 BRILLOUIN-ZONE-CONVCELL_END
 ATOMS
   25    5.8657658080    3.3866008120    2.4030315510    0.0000211600    0.0000122500    0.0000107400
   25    7.8219442500    6.7748027570    2.4030312090    0.0000213100    0.0000123900    0.0000106000
   25    9.7781219770    3.3866013540    2.4030324120    0.0000213900    0.0000122700    0.0000105900
   25   11.7343016230    6.7748041210    2.4030311190    0.0000212800    0.0000121900    0.0000107300
   16    1.9589512290    1.1310042890    3.1872122310   -0.0000212700   -0.0000120700   -0.0000107600
   16    3.9151309960    4.5192049200    3.1872114460   -0.0000214000   -0.0000124100   -0.0000105400
   16    5.8713101110    1.1310045130    3.1872116810   -0.0000213000   -0.0000122000   -0.0000106800
   16    7.8274885710    4.5192045790    3.1872120010   -0.0000211600   -0.0000124100   -0.0000106800
 FRAMES
1      0.0000000000    0.0000000000    0.0000000000      7.8247163660    0.0000000000    0.0000000000
1      0.0000000000    0.0000000000    0.0000000000      3.9123581830    6.7763999910    0.0000000000
1      0.0000000000    0.0000000000    0.0000000000      1.9561790920    1.1294039110    3.1944248070
1      1.9561790920    1.1294039110    3.1944248070      9.7808954580    1.1294039110    3.1944248070
1      1.9561790920    1.1294039110    3.1944248070      5.8685372750    7.9058039020    3.1944248070
1      3.9123581830    6.7763999910    0.0000000000     11.7370745490    6.7763999910    0.0000000000
1      3.9123581830    6.7763999910    0.0000000000      5.8685372750    7.9058039020    3.1944248070
1      5.8685372750    7.9058039020    3.1944248070     13.6932536410    7.9058039020    3.1944248070
1      7.8247163660    0.0000000000    0.0000000000     11.7370745490    6.7763999910    0.0000000000
1      7.8247163660    0.0000000000    0.0000000000      9.7808954580    1.1294039110    3.1944248070
1      9.7808954580    1.1294039110    3.1944248070     13.6932536410    7.9058039020    3.1944248070
1     11.7370745490    6.7763999910    0.0000000000     13.6932536410    7.9058039020    3.1944248070
