 INFO
nunit      1    1    1
unit   cell
celltype   primcell
shape   parapipedal
 END_INFO
 DIM-GROUP
           3           9
 PRIMVEC
    2.4585793750    0.0000000000    0.0000000000
   -1.2292884540    2.1291910410    0.0000000000
    0.0000000000    0.0000000000    6.6251190030
 CONVVEC
    2.4585793750    0.0000000000    0.0000000000
   -1.2292884540    2.1291910410    0.0000000000
    0.0000000000    0.0000000000    6.6251190030
 PRIMCOORD
           4           1
  6      0.0000000000     0.0000000000     1.6562794320     0.0000000000     0.0000000000     0.0000000000
  6      0.0000000000     0.0000000000     4.9688382950    -0.0000000000     0.0000000000     0.0000000000
  6      0.0000000010     1.4194610630     1.6562794320     0.0000000000     0.0000000000     0.0000000000
  6      1.2292893410     0.7097305310     4.9688382950    -0.0000000000    -0.0000000000     0.0000000000
 CONVCOORD
           4           1
  6      0.0000000000     0.0000000000     1.6562794320
  6      0.0000000000     0.0000000000     4.9688382950
  6      0.0000000010     1.4194610630     1.6562794320
  6      1.2292893410     0.7097305310     4.9688382950
 RECIP-PRIMVEC
    0.4067389527    0.2348307356   -0.0000000000

    0.0000000000    0.4696619424    0.0000000000

    0.0000000000   -0.0000000000    0.1509406849

 RECIP-CONVVEC
    0.4067389527    0.2348307356   -0.0000000000

    0.0000000000    0.4696619424    0.0000000000

    0.0000000000   -0.0000000000    0.1509406849

 WIGNER-SEITZ-PRIMCELL
           4
  0.1229290E+01 -0.7097300E+00 -0.3312560E+01   0.1000000E+01 -0.0000000E+00 -0.0000000E+00
  0.1229290E+01  0.7097300E+00 -0.3312560E+01   0.1000000E+01 -0.0000000E+00 -0.0000000E+00
  0.1229290E+01  0.7097300E+00  0.3312560E+01   0.1000000E+01 -0.0000000E+00 -0.0000000E+00
  0.1229290E+01 -0.7097300E+00  0.3312560E+01   0.1000000E+01 -0.0000000E+00 -0.0000000E+00
           4
  0.1229290E+01 -0.7097300E+00  0.3312560E+01   0.4999998E+00 -0.8660255E+00  0.0000000E+00
 -0.1233500E-05 -0.1419461E+01  0.3312560E+01   0.4999998E+00 -0.8660255E+00  0.0000000E+00
 -0.1233500E-05 -0.1419461E+01 -0.3312560E+01   0.4999998E+00 -0.8660255E+00  0.0000000E+00
  0.1229290E+01 -0.7097300E+00 -0.3312560E+01   0.4999998E+00 -0.8660255E+00  0.0000000E+00
           4
  0.1229290E+01  0.7097300E+00 -0.3312560E+01   0.5000006E+00  0.8660251E+00 -0.0000000E+00
  0.1233500E-05  0.1419461E+01 -0.3312560E+01   0.5000006E+00  0.8660251E+00 -0.0000000E+00
  0.1233500E-05  0.1419461E+01  0.3312560E+01   0.5000006E+00  0.8660251E+00 -0.0000000E+00
  0.1229290E+01  0.7097300E+00  0.3312560E+01   0.5000006E+00  0.8660251E+00 -0.0000000E+00
           6
 -0.1229290E+01 -0.7097300E+00 -0.3312560E+01  -0.5090054E-15  0.0000000E+00 -0.1000000E+01
 -0.1229290E+01  0.7097300E+00 -0.3312560E+01  -0.5090054E-15  0.0000000E+00 -0.1000000E+01
  0.1233500E-05  0.1419461E+01 -0.3312560E+01  -0.5090054E-15  0.0000000E+00 -0.1000000E+01
  0.1229290E+01  0.7097300E+00 -0.3312560E+01  -0.5090054E-15  0.0000000E+00 -0.1000000E+01
  0.1229290E+01 -0.7097300E+00 -0.3312560E+01  -0.5090054E-15  0.0000000E+00 -0.1000000E+01
 -0.1233500E-05 -0.1419461E+01 -0.3312560E+01  -0.5090054E-15  0.0000000E+00 -0.1000000E+01
           6
 -0.1233500E-05 -0.1419461E+01  0.3312560E+01  -0.1018011E-14 -0.0000000E+00  0.1000000E+01
  0.1229290E+01 -0.7097300E+00  0.3312560E+01  -0.1018011E-14 -0.0000000E+00  0.1000000E+01
  0.1229290E+01  0.7097300E+00  0.3312560E+01  -0.1018011E-14 -0.0000000E+00  0.1000000E+01
  0.1233500E-05  0.1419461E+01  0.3312560E+01  -0.1018011E-14 -0.0000000E+00  0.1000000E+01
 -0.1229290E+01  0.7097300E+00  0.3312560E+01  -0.1018011E-14 -0.0000000E+00  0.1000000E+01
 -0.1229290E+01 -0.7097300E+00  0.3312560E+01  -0.1018011E-14 -0.0000000E+00  0.1000000E+01
           4
 -0.1233500E-05 -0.1419461E+01  0.3312560E+01  -0.5000006E+00 -0.8660251E+00  0.2361148E-16
 -0.1229290E+01 -0.7097300E+00  0.3312560E+01  -0.5000006E+00 -0.8660251E+00  0.2361148E-16
 -0.1229290E+01 -0.7097300E+00 -0.3312560E+01  -0.5000006E+00 -0.8660251E+00  0.2361148E-16
 -0.1233500E-05 -0.1419461E+01 -0.3312560E+01  -0.5000006E+00 -0.8660251E+00  0.2361148E-16
           4
  0.1233500E-05  0.1419461E+01  0.3312560E+01  -0.4999998E+00  0.8660255E+00  0.1652801E-15
  0.1233500E-05  0.1419461E+01 -0.3312560E+01  -0.4999998E+00  0.8660255E+00  0.1652801E-15
 -0.1229290E+01  0.7097300E+00 -0.3312560E+01  -0.4999998E+00  0.8660255E+00  0.1652801E-15
 -0.1229290E+01  0.7097300E+00  0.3312560E+01  -0.4999998E+00  0.8660255E+00  0.1652801E-15
           4
 -0.1229290E+01 -0.7097300E+00  0.3312560E+01  -0.1000000E+01  0.0000000E+00  0.0000000E+00
 -0.1229290E+01  0.7097300E+00  0.3312560E+01  -0.1000000E+01  0.0000000E+00  0.0000000E+00
 -0.1229290E+01  0.7097300E+00 -0.3312560E+01  -0.1000000E+01  0.0000000E+00  0.0000000E+00
 -0.1229290E+01 -0.7097300E+00 -0.3312560E+01  -0.1000000E+01  0.0000000E+00  0.0000000E+00
 WIGNER-SEITZ-PRIMCELL_END
 WIGNER-SEITZ-CONVCELL
           4
  0.1229290E+01 -0.7097300E+00 -0.3312560E+01   0.1000000E+01 -0.0000000E+00 -0.0000000E+00
  0.1229290E+01  0.7097300E+00 -0.3312560E+01   0.1000000E+01 -0.0000000E+00 -0.0000000E+00
  0.1229290E+01  0.7097300E+00  0.3312560E+01   0.1000000E+01 -0.0000000E+00 -0.0000000E+00
  0.1229290E+01 -0.7097300E+00  0.3312560E+01   0.1000000E+01 -0.0000000E+00 -0.0000000E+00
           4
  0.1229290E+01 -0.7097300E+00  0.3312560E+01   0.4999998E+00 -0.8660255E+00  0.0000000E+00
 -0.1233500E-05 -0.1419461E+01  0.3312560E+01   0.4999998E+00 -0.8660255E+00  0.0000000E+00
 -0.1233500E-05 -0.1419461E+01 -0.3312560E+01   0.4999998E+00 -0.8660255E+00  0.0000000E+00
  0.1229290E+01 -0.7097300E+00 -0.3312560E+01   0.4999998E+00 -0.8660255E+00  0.0000000E+00
           4
  0.1229290E+01  0.7097300E+00 -0.3312560E+01   0.5000006E+00  0.8660251E+00 -0.0000000E+00
  0.1233500E-05  0.1419461E+01 -0.3312560E+01   0.5000006E+00  0.8660251E+00 -0.0000000E+00
  0.1233500E-05  0.1419461E+01  0.3312560E+01   0.5000006E+00  0.8660251E+00 -0.0000000E+00
  0.1229290E+01  0.7097300E+00  0.3312560E+01   0.5000006E+00  0.8660251E+00 -0.0000000E+00
           6
 -0.1229290E+01 -0.7097300E+00 -0.3312560E+01  -0.5090054E-15  0.0000000E+00 -0.1000000E+01
 -0.1229290E+01  0.7097300E+00 -0.3312560E+01  -0.5090054E-15  0.0000000E+00 -0.1000000E+01
  0.1233500E-05  0.1419461E+01 -0.3312560E+01  -0.5090054E-15  0.0000000E+00 -0.1000000E+01
  0.1229290E+01  0.7097300E+00 -0.3312560E+01  -0.5090054E-15  0.0000000E+00 -0.1000000E+01
  0.1229290E+01 -0.7097300E+00 -0.3312560E+01  -0.5090054E-15  0.0000000E+00 -0.1000000E+01
 -0.1233500E-05 -0.1419461E+01 -0.3312560E+01  -0.5090054E-15  0.0000000E+00 -0.1000000E+01
           6
 -0.1233500E-05 -0.1419461E+01  0.3312560E+01  -0.1018011E-14 -0.0000000E+00  0.1000000E+01
  0.1229290E+01 -0.7097300E+00  0.3312560E+01  -0.1018011E-14 -0.0000000E+00  0.1000000E+01
  0.1229290E+01  0.7097300E+00  0.3312560E+01  -0.1018011E-14 -0.0000000E+00  0.1000000E+01
  0.1233500E-05  0.1419461E+01  0.3312560E+01  -0.1018011E-14 -0.0000000E+00  0.1000000E+01
 -0.1229290E+01  0.7097300E+00  0.3312560E+01  -0.1018011E-14 -0.0000000E+00  0.1000000E+01
 -0.1229290E+01 -0.7097300E+00  0.3312560E+01  -0.1018011E-14 -0.0000000E+00  0.1000000E+01
           4
 -0.1233500E-05 -0.1419461E+01  0.3312560E+01  -0.5000006E+00 -0.8660251E+00  0.2361148E-16
 -0.1229290E+01 -0.7097300E+00  0.3312560E+01  -0.5000006E+00 -0.8660251E+00  0.2361148E-16
 -0.1229290E+01 -0.7097300E+00 -0.3312560E+01  -0.5000006E+00 -0.8660251E+00  0.2361148E-16
 -0.1233500E-05 -0.1419461E+01 -0.3312560E+01  -0.5000006E+00 -0.8660251E+00  0.2361148E-16
           4
  0.1233500E-05  0.1419461E+01  0.3312560E+01  -0.4999998E+00  0.8660255E+00  0.1652801E-15
  0.1233500E-05  0.1419461E+01 -0.3312560E+01  -0.4999998E+00  0.8660255E+00  0.1652801E-15
 -0.1229290E+01  0.7097300E+00 -0.3312560E+01  -0.4999998E+00  0.8660255E+00  0.1652801E-15
 -0.1229290E+01  0.7097300E+00  0.3312560E+01  -0.4999998E+00  0.8660255E+00  0.1652801E-15
           4
 -0.1229290E+01 -0.7097300E+00  0.3312560E+01  -0.1000000E+01  0.0000000E+00  0.0000000E+00
 -0.1229290E+01  0.7097300E+00  0.3312560E+01  -0.1000000E+01  0.0000000E+00  0.0000000E+00
 -0.1229290E+01  0.7097300E+00 -0.3312560E+01  -0.1000000E+01  0.0000000E+00  0.0000000E+00
 -0.1229290E+01 -0.7097300E+00 -0.3312560E+01  -0.1000000E+01  0.0000000E+00  0.0000000E+00
 WIGNER-SEITZ-CONVCELL_END
 BRILLOUIN-ZONE-PRIMCELL
           4
 -0.2711594E+00  0.2356353E-06 -0.7547034E-01  -0.8660255E+00 -0.4999998E+00 -0.0000000E+00
 -0.1355796E+00 -0.2348310E+00 -0.7547034E-01  -0.8660255E+00 -0.4999998E+00 -0.0000000E+00
 -0.1355796E+00 -0.2348310E+00  0.7547034E-01  -0.8660255E+00 -0.4999998E+00 -0.0000000E+00
 -0.2711594E+00  0.2356353E-06  0.7547034E-01  -0.8660255E+00 -0.4999998E+00 -0.0000000E+00
           4
 -0.2711594E+00  0.2356353E-06  0.7547034E-01  -0.8660251E+00  0.5000006E+00  0.0000000E+00
 -0.1355796E+00  0.2348310E+00  0.7547034E-01  -0.8660251E+00  0.5000006E+00  0.0000000E+00
 -0.1355796E+00  0.2348310E+00 -0.7547034E-01  -0.8660251E+00  0.5000006E+00  0.0000000E+00
 -0.2711594E+00  0.2356353E-06 -0.7547034E-01  -0.8660251E+00  0.5000006E+00  0.0000000E+00
           4
 -0.1355796E+00 -0.2348310E+00 -0.7547034E-01  -0.0000000E+00 -0.1000000E+01 -0.0000000E+00
  0.1355796E+00 -0.2348310E+00 -0.7547034E-01  -0.0000000E+00 -0.1000000E+01 -0.0000000E+00
  0.1355796E+00 -0.2348310E+00  0.7547034E-01  -0.0000000E+00 -0.1000000E+01 -0.0000000E+00
 -0.1355796E+00 -0.2348310E+00  0.7547034E-01  -0.0000000E+00 -0.1000000E+01 -0.0000000E+00
           6
 -0.2711594E+00  0.2356353E-06 -0.7547034E-01   0.0000000E+00 -0.5448551E-16 -0.1000000E+01
 -0.1355796E+00  0.2348310E+00 -0.7547034E-01   0.0000000E+00 -0.5448551E-16 -0.1000000E+01
  0.1355796E+00  0.2348310E+00 -0.7547034E-01   0.0000000E+00 -0.5448551E-16 -0.1000000E+01
  0.2711594E+00 -0.2356353E-06 -0.7547034E-01   0.0000000E+00 -0.5448551E-16 -0.1000000E+01
  0.1355796E+00 -0.2348310E+00 -0.7547034E-01   0.0000000E+00 -0.5448551E-16 -0.1000000E+01
 -0.1355796E+00 -0.2348310E+00 -0.7547034E-01   0.0000000E+00 -0.5448551E-16 -0.1000000E+01
           6
 -0.1355796E+00 -0.2348310E+00  0.7547034E-01  -0.0000000E+00  0.5448551E-16  0.1000000E+01
  0.1355796E+00 -0.2348310E+00  0.7547034E-01  -0.0000000E+00  0.5448551E-16  0.1000000E+01
  0.2711594E+00 -0.2356353E-06  0.7547034E-01  -0.0000000E+00  0.5448551E-16  0.1000000E+01
  0.1355796E+00  0.2348310E+00  0.7547034E-01  -0.0000000E+00  0.5448551E-16  0.1000000E+01
 -0.1355796E+00  0.2348310E+00  0.7547034E-01  -0.0000000E+00  0.5448551E-16  0.1000000E+01
 -0.2711594E+00  0.2356353E-06  0.7547034E-01  -0.0000000E+00  0.5448551E-16  0.1000000E+01
           4
  0.1355796E+00  0.2348310E+00  0.7547034E-01   0.0000000E+00  0.1000000E+01 -0.3390702E-15
  0.1355796E+00  0.2348310E+00 -0.7547034E-01   0.0000000E+00  0.1000000E+01 -0.3390702E-15
 -0.1355796E+00  0.2348310E+00 -0.7547034E-01   0.0000000E+00  0.1000000E+01 -0.3390702E-15
 -0.1355796E+00  0.2348310E+00  0.7547034E-01   0.0000000E+00  0.1000000E+01 -0.3390702E-15
           4
  0.1355796E+00 -0.2348310E+00 -0.7547034E-01   0.8660251E+00 -0.5000006E+00 -0.9964526E-16
  0.2711594E+00 -0.2356353E-06 -0.7547034E-01   0.8660251E+00 -0.5000006E+00 -0.9964526E-16
  0.2711594E+00 -0.2356353E-06  0.7547034E-01   0.8660251E+00 -0.5000006E+00 -0.9964526E-16
  0.1355796E+00 -0.2348310E+00  0.7547034E-01   0.8660251E+00 -0.5000006E+00 -0.9964526E-16
           4
  0.2711594E+00 -0.2356353E-06  0.7547034E-01   0.8660255E+00  0.4999998E+00  0.1695348E-15
  0.2711594E+00 -0.2356353E-06 -0.7547034E-01   0.8660255E+00  0.4999998E+00  0.1695348E-15
  0.1355796E+00  0.2348310E+00 -0.7547034E-01   0.8660255E+00  0.4999998E+00  0.1695348E-15
  0.1355796E+00  0.2348310E+00  0.7547034E-01   0.8660255E+00  0.4999998E+00  0.1695348E-15
 BRILLOUIN-ZONE-PRIMCELL_END
 BRILLOUIN-ZONE-CONVCELL
           4
 -0.2711594E+00  0.2356353E-06 -0.7547034E-01  -0.8660255E+00 -0.4999998E+00 -0.0000000E+00
 -0.1355796E+00 -0.2348310E+00 -0.7547034E-01  -0.8660255E+00 -0.4999998E+00 -0.0000000E+00
 -0.1355796E+00 -0.2348310E+00  0.7547034E-01  -0.8660255E+00 -0.4999998E+00 -0.0000000E+00
 -0.2711594E+00  0.2356353E-06  0.7547034E-01  -0.8660255E+00 -0.4999998E+00 -0.0000000E+00
           4
 -0.2711594E+00  0.2356353E-06  0.7547034E-01  -0.8660251E+00  0.5000006E+00  0.0000000E+00
 -0.1355796E+00  0.2348310E+00  0.7547034E-01  -0.8660251E+00  0.5000006E+00  0.0000000E+00
 -0.1355796E+00  0.2348310E+00 -0.7547034E-01  -0.8660251E+00  0.5000006E+00  0.0000000E+00
 -0.2711594E+00  0.2356353E-06 -0.7547034E-01  -0.8660251E+00  0.5000006E+00  0.0000000E+00
           4
 -0.1355796E+00 -0.2348310E+00 -0.7547034E-01  -0.0000000E+00 -0.1000000E+01 -0.0000000E+00
  0.1355796E+00 -0.2348310E+00 -0.7547034E-01  -0.0000000E+00 -0.1000000E+01 -0.0000000E+00
  0.1355796E+00 -0.2348310E+00  0.7547034E-01  -0.0000000E+00 -0.1000000E+01 -0.0000000E+00
 -0.1355796E+00 -0.2348310E+00  0.7547034E-01  -0.0000000E+00 -0.1000000E+01 -0.0000000E+00
           6
 -0.2711594E+00  0.2356353E-06 -0.7547034E-01   0.0000000E+00 -0.5448551E-16 -0.1000000E+01
 -0.1355796E+00  0.2348310E+00 -0.7547034E-01   0.0000000E+00 -0.5448551E-16 -0.1000000E+01
  0.1355796E+00  0.2348310E+00 -0.7547034E-01   0.0000000E+00 -0.5448551E-16 -0.1000000E+01
  0.2711594E+00 -0.2356353E-06 -0.7547034E-01   0.0000000E+00 -0.5448551E-16 -0.1000000E+01
  0.1355796E+00 -0.2348310E+00 -0.7547034E-01   0.0000000E+00 -0.5448551E-16 -0.1000000E+01
 -0.1355796E+00 -0.2348310E+00 -0.7547034E-01   0.0000000E+00 -0.5448551E-16 -0.1000000E+01
           6
 -0.1355796E+00 -0.2348310E+00  0.7547034E-01  -0.0000000E+00  0.5448551E-16  0.1000000E+01
  0.1355796E+00 -0.2348310E+00  0.7547034E-01  -0.0000000E+00  0.5448551E-16  0.1000000E+01
  0.2711594E+00 -0.2356353E-06  0.7547034E-01  -0.0000000E+00  0.5448551E-16  0.1000000E+01
  0.1355796E+00  0.2348310E+00  0.7547034E-01  -0.0000000E+00  0.5448551E-16  0.1000000E+01
 -0.1355796E+00  0.2348310E+00  0.7547034E-01  -0.0000000E+00  0.5448551E-16  0.1000000E+01
 -0.2711594E+00  0.2356353E-06  0.7547034E-01  -0.0000000E+00  0.5448551E-16  0.1000000E+01
           4
  0.1355796E+00  0.2348310E+00  0.7547034E-01   0.0000000E+00  0.1000000E+01 -0.3390702E-15
  0.1355796E+00  0.2348310E+00 -0.7547034E-01   0.0000000E+00  0.1000000E+01 -0.3390702E-15
 -0.1355796E+00  0.2348310E+00 -0.7547034E-01   0.0000000E+00  0.1000000E+01 -0.3390702E-15
 -0.1355796E+00  0.2348310E+00  0.7547034E-01   0.0000000E+00  0.1000000E+01 -0.3390702E-15
           4
  0.1355796E+00 -0.2348310E+00 -0.7547034E-01   0.8660251E+00 -0.5000006E+00 -0.9964526E-16
  0.2711594E+00 -0.2356353E-06 -0.7547034E-01   0.8660251E+00 -0.5000006E+00 -0.9964526E-16
  0.2711594E+00 -0.2356353E-06  0.7547034E-01   0.8660251E+00 -0.5000006E+00 -0.9964526E-16
  0.1355796E+00 -0.2348310E+00  0.7547034E-01   0.8660251E+00 -0.5000006E+00 -0.9964526E-16
           4
  0.2711594E+00 -0.2356353E-06  0.7547034E-01   0.8660255E+00  0.4999998E+00  0.1695348E-15
  0.2711594E+00 -0.2356353E-06 -0.7547034E-01   0.8660255E+00  0.4999998E+00  0.1695348E-15
  0.1355796E+00  0.2348310E+00 -0.7547034E-01   0.8660255E+00  0.4999998E+00  0.1695348E-15
  0.1355796E+00  0.2348310E+00  0.7547034E-01   0.8660255E+00  0.4999998E+00  0.1695348E-15
 BRILLOUIN-ZONE-CONVCELL_END
 ATOMS
    6    0.0000000000    0.0000000000    1.6562794320    0.0000000000    0.0000000000    0.0000000000
    6    0.0000000000    0.0000000000    4.9688382950   -0.0000000000    0.0000000000    0.0000000000
    6    0.0000000010    1.4194610630    1.6562794320    0.0000000000    0.0000000000    0.0000000000
    6    1.2292893410    0.7097305310    4.9688382950   -0.0000000000   -0.0000000000    0.0000000000
    6   -1.2292884540    2.1291910410    1.6562794320    0.0000000000    0.0000000000    0.0000000000
    6   -1.2292884540    2.1291910410    4.9688382950   -0.0000000000    0.0000000000    0.0000000000
    6    2.4585793750    0.0000000000    1.6562794320    0.0000000000    0.0000000000    0.0000000000
    6    2.4585793750    0.0000000000    4.9688382950   -0.0000000000    0.0000000000    0.0000000000
    6    1.2292909210    2.1291910410    1.6562794320    0.0000000000    0.0000000000    0.0000000000
    6    1.2292909210    2.1291910410    4.9688382950   -0.0000000000    0.0000000000    0.0000000000
 FRAMES
1      0.0000000000    0.0000000000    0.0000000000      2.4585793750    0.0000000000    0.0000000000
1      0.0000000000    0.0000000000    0.0000000000     -1.2292884540    2.1291910410    0.0000000000
1      0.0000000000    0.0000000000    0.0000000000      0.0000000000    0.0000000000    6.6251190030
1      0.0000000000    0.0000000000    6.6251190030      2.4585793750    0.0000000000    6.6251190030
1      0.0000000000    0.0000000000    6.6251190030     -1.2292884540    2.1291910410    6.6251190030
1     -1.2292884540    2.1291910410    0.0000000000      1.2292909210    2.1291910410    0.0000000000
1     -1.2292884540    2.1291910410    0.0000000000     -1.2292884540    2.1291910410    6.6251190030
1     -1.2292884540    2.1291910410    6.6251190030      1.2292909210    2.1291910410    6.6251190030
1      2.4585793750    0.0000000000    0.0000000000      1.2292909210    2.1291910410    0.0000000000
1      2.4585793750    0.0000000000    0.0000000000      2.4585793750    0.0000000000    6.6251190030
1      2.4585793750    0.0000000000    6.6251190030      1.2292909210    2.1291910410    6.6251190030
1      1.2292909210    2.1291910410    0.0000000000      1.2292909210    2.1291910410    6.6251190030
