 INFO
nunit      1    1    1
unit   cell
celltype   primcell
shape   parapipedal
 END_INFO
 DIM-GROUP
           3           1
 PRIMVEC
    2.7616869040    0.0000000000    0.0000000000
    0.0000000000    2.7616869040    0.0000000000
    0.0000000000    0.0000000000    2.7616869040
 CONVVEC
    2.7616869040    0.0000000000    0.0000000000
    0.0000000000    2.7616869040    0.0000000000
    0.0000000000    0.0000000000    2.7616869040
 PRIMCOORD
           2           1
 26      0.0000000000     0.0000000000     0.0000000000     0.0000000000     0.0000000000     0.0000000000
 26      1.3808429670     1.3808429670     1.3808429670     0.0000000000     0.0000000000     0.0000000000
 CONVCOORD
           2           1
 26      0.0000000000     0.0000000000     0.0000000000
 26      1.3808429670     1.3808429670     1.3808429670
 RECIP-PRIMVEC
    0.3620975276    0.0000000000    0.0000000000

    0.0000000000    0.3620975276    0.0000000000

    0.0000000000    0.0000000000    0.3620975276

 RECIP-CONVVEC
    0.3620975276    0.0000000000    0.0000000000

    0.0000000000    0.3620975276    0.0000000000

    0.0000000000    0.0000000000    0.3620975276

 WIGNER-SEITZ-PRIMCELL
           4
 -0.1380843E+01 -0.1380843E+01  0.1380843E+01  -0.1000000E+01  0.0000000E+00  0.0000000E+00
 -0.1380843E+01  0.1380843E+01  0.1380843E+01  -0.1000000E+01  0.0000000E+00  0.0000000E+00
 -0.1380843E+01  0.1380843E+01 -0.1380843E+01  -0.1000000E+01  0.0000000E+00  0.0000000E+00
 -0.1380843E+01 -0.1380843E+01 -0.1380843E+01  -0.1000000E+01  0.0000000E+00  0.0000000E+00
           4
 -0.1380843E+01 -0.1380843E+01 -0.1380843E+01  -0.0000000E+00 -0.1000000E+01 -0.0000000E+00
  0.1380843E+01 -0.1380843E+01 -0.1380843E+01  -0.0000000E+00 -0.1000000E+01 -0.0000000E+00
  0.1380843E+01 -0.1380843E+01  0.1380843E+01  -0.0000000E+00 -0.1000000E+01 -0.0000000E+00
 -0.1380843E+01 -0.1380843E+01  0.1380843E+01  -0.0000000E+00 -0.1000000E+01 -0.0000000E+00
           4
 -0.1380843E+01  0.1380843E+01 -0.1380843E+01   0.0000000E+00  0.0000000E+00 -0.1000000E+01
  0.1380843E+01  0.1380843E+01 -0.1380843E+01   0.0000000E+00  0.0000000E+00 -0.1000000E+01
  0.1380843E+01 -0.1380843E+01 -0.1380843E+01   0.0000000E+00  0.0000000E+00 -0.1000000E+01
 -0.1380843E+01 -0.1380843E+01 -0.1380843E+01   0.0000000E+00  0.0000000E+00 -0.1000000E+01
           4
 -0.1380843E+01 -0.1380843E+01  0.1380843E+01   0.5822659E-16 -0.0000000E+00  0.1000000E+01
  0.1380843E+01 -0.1380843E+01  0.1380843E+01   0.5822659E-16 -0.0000000E+00  0.1000000E+01
  0.1380843E+01  0.1380843E+01  0.1380843E+01   0.5822659E-16 -0.0000000E+00  0.1000000E+01
 -0.1380843E+01  0.1380843E+01  0.1380843E+01   0.5822659E-16 -0.0000000E+00  0.1000000E+01
           4
 -0.1380843E+01  0.1380843E+01  0.1380843E+01   0.0000000E+00  0.1000000E+01  0.0000000E+00
  0.1380843E+01  0.1380843E+01  0.1380843E+01   0.0000000E+00  0.1000000E+01  0.0000000E+00
  0.1380843E+01  0.1380843E+01 -0.1380843E+01   0.0000000E+00  0.1000000E+01  0.0000000E+00
 -0.1380843E+01  0.1380843E+01 -0.1380843E+01   0.0000000E+00  0.1000000E+01  0.0000000E+00
           4
  0.1380843E+01 -0.1380843E+01 -0.1380843E+01   0.1000000E+01 -0.0000000E+00 -0.0000000E+00
  0.1380843E+01  0.1380843E+01 -0.1380843E+01   0.1000000E+01 -0.0000000E+00 -0.0000000E+00
  0.1380843E+01  0.1380843E+01  0.1380843E+01   0.1000000E+01 -0.0000000E+00 -0.0000000E+00
  0.1380843E+01 -0.1380843E+01  0.1380843E+01   0.1000000E+01 -0.0000000E+00 -0.0000000E+00
 WIGNER-SEITZ-PRIMCELL_END
 WIGNER-SEITZ-CONVCELL
           4
 -0.1380843E+01 -0.1380843E+01  0.1380843E+01  -0.1000000E+01  0.0000000E+00  0.0000000E+00
 -0.1380843E+01  0.1380843E+01  0.1380843E+01  -0.1000000E+01  0.0000000E+00  0.0000000E+00
 -0.1380843E+01  0.1380843E+01 -0.1380843E+01  -0.1000000E+01  0.0000000E+00  0.0000000E+00
 -0.1380843E+01 -0.1380843E+01 -0.1380843E+01  -0.1000000E+01  0.0000000E+00  0.0000000E+00
           4
 -0.1380843E+01 -0.1380843E+01 -0.1380843E+01  -0.0000000E+00 -0.1000000E+01 -0.0000000E+00
  0.1380843E+01 -0.1380843E+01 -0.1380843E+01  -0.0000000E+00 -0.1000000E+01 -0.0000000E+00
  0.1380843E+01 -0.1380843E+01  0.1380843E+01  -0.0000000E+00 -0.1000000E+01 -0.0000000E+00
 -0.1380843E+01 -0.1380843E+01  0.1380843E+01  -0.0000000E+00 -0.1000000E+01 -0.0000000E+00
           4
 -0.1380843E+01  0.1380843E+01 -0.1380843E+01   0.0000000E+00  0.0000000E+00 -0.1000000E+01
  0.1380843E+01  0.1380843E+01 -0.1380843E+01   0.0000000E+00  0.0000000E+00 -0.1000000E+01
  0.1380843E+01 -0.1380843E+01 -0.1380843E+01   0.0000000E+00  0.0000000E+00 -0.1000000E+01
 -0.1380843E+01 -0.1380843E+01 -0.1380843E+01   0.0000000E+00  0.0000000E+00 -0.1000000E+01
           4
 -0.1380843E+01 -0.1380843E+01  0.1380843E+01   0.5822659E-16 -0.0000000E+00  0.1000000E+01
  0.1380843E+01 -0.1380843E+01  0.1380843E+01   0.5822659E-16 -0.0000000E+00  0.1000000E+01
  0.1380843E+01  0.1380843E+01  0.1380843E+01   0.5822659E-16 -0.0000000E+00  0.1000000E+01
 -0.1380843E+01  0.1380843E+01  0.1380843E+01   0.5822659E-16 -0.0000000E+00  0.1000000E+01
           4
 -0.1380843E+01  0.1380843E+01  0.1380843E+01   0.0000000E+00  0.1000000E+01  0.0000000E+00
  0.1380843E+01  0.1380843E+01  0.1380843E+01   0.0000000E+00  0.1000000E+01  0.0000000E+00
  0.1380843E+01  0.1380843E+01 -0.1380843E+01   0.0000000E+00  0.1000000E+01  0.0000000E+00
 -0.1380843E+01  0.1380843E+01 -0.1380843E+01   0.0000000E+00  0.1000000E+01  0.0000000E+00
           4
  0.1380843E+01 -0.1380843E+01 -0.1380843E+01   0.1000000E+01 -0.0000000E+00 -0.0000000E+00
  0.1380843E+01  0.1380843E+01 -0.1380843E+01   0.1000000E+01 -0.0000000E+00 -0.0000000E+00
  0.1380843E+01  0.1380843E+01  0.1380843E+01   0.1000000E+01 -0.0000000E+00 -0.0000000E+00
  0.1380843E+01 -0.1380843E+01  0.1380843E+01   0.1000000E+01 -0.0000000E+00 -0.0000000E+00
 WIGNER-SEITZ-CONVCELL_END
 BRILLOUIN-ZONE-PRIMCELL
           4
 -0.1810488E+00 -0.1810488E+00  0.1810488E+00  -0.1000000E+01  0.7665221E-16 -0.7665221E-16
 -0.1810488E+00  0.1810488E+00  0.1810488E+00  -0.1000000E+01  0.7665221E-16 -0.7665221E-16
 -0.1810488E+00  0.1810488E+00 -0.1810488E+00  -0.1000000E+01  0.7665221E-16 -0.7665221E-16
 -0.1810488E+00 -0.1810488E+00 -0.1810488E+00  -0.1000000E+01  0.7665221E-16 -0.7665221E-16
           4
 -0.1810488E+00 -0.1810488E+00  0.1810488E+00  -0.0000000E+00 -0.1000000E+01 -0.0000000E+00
 -0.1810488E+00 -0.1810488E+00 -0.1810488E+00  -0.0000000E+00 -0.1000000E+01 -0.0000000E+00
  0.1810488E+00 -0.1810488E+00 -0.1810488E+00  -0.0000000E+00 -0.1000000E+01 -0.0000000E+00
  0.1810488E+00 -0.1810488E+00  0.1810488E+00  -0.0000000E+00 -0.1000000E+01 -0.0000000E+00
           4
 -0.1810488E+00  0.1810488E+00 -0.1810488E+00   0.0000000E+00 -0.3832610E-16 -0.1000000E+01
  0.1810488E+00  0.1810488E+00 -0.1810488E+00   0.0000000E+00 -0.3832610E-16 -0.1000000E+01
  0.1810488E+00 -0.1810488E+00 -0.1810488E+00   0.0000000E+00 -0.3832610E-16 -0.1000000E+01
 -0.1810488E+00 -0.1810488E+00 -0.1810488E+00   0.0000000E+00 -0.3832610E-16 -0.1000000E+01
           4
 -0.1810488E+00 -0.1810488E+00  0.1810488E+00  -0.0000000E+00  0.5838498E-16  0.1000000E+01
  0.1810488E+00 -0.1810488E+00  0.1810488E+00  -0.0000000E+00  0.5838498E-16  0.1000000E+01
  0.1810488E+00  0.1810488E+00  0.1810488E+00  -0.0000000E+00  0.5838498E-16  0.1000000E+01
 -0.1810488E+00  0.1810488E+00  0.1810488E+00  -0.0000000E+00  0.5838498E-16  0.1000000E+01
           4
  0.1810488E+00  0.1810488E+00  0.1810488E+00   0.0000000E+00  0.1000000E+01 -0.1058447E-15
  0.1810488E+00  0.1810488E+00 -0.1810488E+00   0.0000000E+00  0.1000000E+01 -0.1058447E-15
 -0.1810488E+00  0.1810488E+00 -0.1810488E+00   0.0000000E+00  0.1000000E+01 -0.1058447E-15
 -0.1810488E+00  0.1810488E+00  0.1810488E+00   0.0000000E+00  0.1000000E+01 -0.1058447E-15
           4
  0.1810488E+00 -0.1810488E+00 -0.1810488E+00   0.1000000E+01  0.7665221E-16 -0.7665221E-16
  0.1810488E+00  0.1810488E+00 -0.1810488E+00   0.1000000E+01  0.7665221E-16 -0.7665221E-16
  0.1810488E+00  0.1810488E+00  0.1810488E+00   0.1000000E+01  0.7665221E-16 -0.7665221E-16
  0.1810488E+00 -0.1810488E+00  0.1810488E+00   0.1000000E+01  0.7665221E-16 -0.7665221E-16
 BRILLOUIN-ZONE-PRIMCELL_END
 BRILLOUIN-ZONE-CONVCELL
           4
 -0.1810488E+00 -0.1810488E+00  0.1810488E+00  -0.1000000E+01  0.7665221E-16 -0.7665221E-16
 -0.1810488E+00  0.1810488E+00  0.1810488E+00  -0.1000000E+01  0.7665221E-16 -0.7665221E-16
 -0.1810488E+00  0.1810488E+00 -0.1810488E+00  -0.1000000E+01  0.7665221E-16 -0.7665221E-16
 -0.1810488E+00 -0.1810488E+00 -0.1810488E+00  -0.1000000E+01  0.7665221E-16 -0.7665221E-16
           4
 -0.1810488E+00 -0.1810488E+00  0.1810488E+00  -0.0000000E+00 -0.1000000E+01 -0.0000000E+00
 -0.1810488E+00 -0.1810488E+00 -0.1810488E+00  -0.0000000E+00 -0.1000000E+01 -0.0000000E+00
  0.1810488E+00 -0.1810488E+00 -0.1810488E+00  -0.0000000E+00 -0.1000000E+01 -0.0000000E+00
  0.1810488E+00 -0.1810488E+00  0.1810488E+00  -0.0000000E+00 -0.1000000E+01 -0.0000000E+00
           4
 -0.1810488E+00  0.1810488E+00 -0.1810488E+00   0.0000000E+00 -0.3832610E-16 -0.1000000E+01
  0.1810488E+00  0.1810488E+00 -0.1810488E+00   0.0000000E+00 -0.3832610E-16 -0.1000000E+01
  0.1810488E+00 -0.1810488E+00 -0.1810488E+00   0.0000000E+00 -0.3832610E-16 -0.1000000E+01
 -0.1810488E+00 -0.1810488E+00 -0.1810488E+00   0.0000000E+00 -0.3832610E-16 -0.1000000E+01
           4
 -0.1810488E+00 -0.1810488E+00  0.1810488E+00  -0.0000000E+00  0.5838498E-16  0.1000000E+01
  0.1810488E+00 -0.1810488E+00  0.1810488E+00  -0.0000000E+00  0.5838498E-16  0.1000000E+01
  0.1810488E+00  0.1810488E+00  0.1810488E+00  -0.0000000E+00  0.5838498E-16  0.1000000E+01
 -0.1810488E+00  0.1810488E+00  0.1810488E+00  -0.0000000E+00  0.5838498E-16  0.1000000E+01
           4
  0.1810488E+00  0.1810488E+00  0.1810488E+00   0.0000000E+00  0.1000000E+01 -0.1058447E-15
  0.1810488E+00  0.1810488E+00 -0.1810488E+00   0.0000000E+00  0.1000000E+01 -0.1058447E-15
 -0.1810488E+00  0.1810488E+00 -0.1810488E+00   0.0000000E+00  0.1000000E+01 -0.1058447E-15
 -0.1810488E+00  0.1810488E+00  0.1810488E+00   0.0000000E+00  0.1000000E+01 -0.1058447E-15
           4
  0.1810488E+00 -0.1810488E+00 -0.1810488E+00   0.1000000E+01  0.7665221E-16 -0.7665221E-16
  0.1810488E+00  0.1810488E+00 -0.1810488E+00   0.1000000E+01  0.7665221E-16 -0.7665221E-16
  0.1810488E+00  0.1810488E+00  0.1810488E+00   0.1000000E+01  0.7665221E-16 -0.7665221E-16
  0.1810488E+00 -0.1810488E+00  0.1810488E+00   0.1000000E+01  0.7665221E-16 -0.7665221E-16
 BRILLOUIN-ZONE-CONVCELL_END
 ATOMS
   26    0.0000000000    0.0000000000    0.0000000000    0.0000000000    0.0000000000    0.0000000000
   26    1.3808429670    1.3808429670    1.3808429670    0.0000000000    0.0000000000    0.0000000000
   26    0.0000000000    0.0000000000    2.7616869040    0.0000000000    0.0000000000    0.0000000000
   26    0.0000000000    2.7616869040    0.0000000000    0.0000000000    0.0000000000    0.0000000000
   26    0.0000000000    2.7616869040    2.7616869040    0.0000000000    0.0000000000    0.0000000000
   26    2.7616869040    0.0000000000    0.0000000000    0.0000000000    0.0000000000    0.0000000000
   26    2.7616869040    0.0000000000    2.7616869040    0.0000000000    0.0000000000    0.0000000000
   26    2.7616869040    2.7616869040    0.0000000000    0.0000000000    0.0000000000    0.0000000000
   26    2.7616869040    2.7616869040    2.7616869040    0.0000000000    0.0000000000    0.0000000000
 FRAMES
1      0.0000000000    0.0000000000    0.0000000000      2.7616869040    0.0000000000    0.0000000000
1      0.0000000000    0.0000000000    0.0000000000      0.0000000000    2.7616869040    0.0000000000
1      0.0000000000    0.0000000000    0.0000000000      0.0000000000    0.0000000000    2.7616869040
1      0.0000000000    0.0000000000    2.7616869040      2.7616869040    0.0000000000    2.7616869040
1      0.0000000000    0.0000000000    2.7616869040      0.0000000000    2.7616869040    2.7616869040
1      0.0000000000    2.7616869040    0.0000000000      2.7616869040    2.7616869040    0.0000000000
1      0.0000000000    2.7616869040    0.0000000000      0.0000000000    2.7616869040    2.7616869040
1      0.0000000000    2.7616869040    2.7616869040      2.7616869040    2.7616869040    2.7616869040
1      2.7616869040    0.0000000000    0.0000000000      2.7616869040    2.7616869040    0.0000000000
1      2.7616869040    0.0000000000    0.0000000000      2.7616869040    0.0000000000    2.7616869040
1      2.7616869040    0.0000000000    2.7616869040      2.7616869040    2.7616869040    2.7616869040
1      2.7616869040    2.7616869040    0.0000000000      2.7616869040    2.7616869040    2.7616869040
